<?xml version="1.0" encoding="UTF-8"?>

<!-- generated on 2026-01-15T14:01:24.234182+08:00 by Eclipse SUMO netconvert 1.25.0
<netconvertConfiguration xmlns:xsi="http://www.w3.org/2001/XMLSchema-instance" xsi:noNamespaceSchemaLocation="http://sumo.dlr.de/xsd/netconvertConfiguration.xsd">

    <input>
        <node-files value="results/network.sumonod.xml"/>
        <edge-files value="results/network.sumoedg.xml"/>
        <connection-files value="results/network.sumocon.xml"/>
    </input>

    <output>
        <output-file value="results/network.sumonet.xml"/>
    </output>

</netconvertConfiguration>
-->

<net version="1.20" junctionCornerDetail="5" limitTurnSpeed="5.50" xmlns:xsi="http://www.w3.org/2001/XMLSchema-instance" xsi:noNamespaceSchemaLocation="http://sumo.dlr.de/xsd/net_file.xsd">

    <location netOffset="8796.81,2781.65" convBoundary="0.00,0.00,4835.84,5350.53" origBoundary="116.289849,39.971393,116.346556,40.019714" projParameter="+proj=tmerc +lat_0=39.99654 +lon_0=116.39289 +k=1 +x_0=0 +y_0=0 +ellps=WGS84 +units=m +no_defs"/>

    <edge id=":300000000_0" function="internal">
        <lane id=":300000000_0_0" index="0" speed="4.72" length="9.35" shape="3231.67,452.47 3233.36,450.13 3234.99,449.39 3236.56,450.25 3238.07,452.71"/>
    </edge>
    <edge id=":300000001_0" function="internal">
        <lane id=":300000001_0_0" index="0" speed="11.11" length="26.54" shape="3217.78,1449.49 3191.31,1447.62"/>
    </edge>
    <edge id=":300000001_1" function="internal">
        <lane id=":300000001_1_0" index="0" speed="11.11" length="27.55" shape="3217.78,1449.49 3207.76,1447.32 3200.73,1442.47 3196.68,1434.95 3196.65,1434.74"/>
    </edge>
    <edge id=":300000001_2" function="internal">
        <lane id=":300000001_2_0" index="0" speed="4.72" length="9.36" shape="3217.78,1449.49 3215.50,1447.72 3214.82,1446.06 3215.73,1444.52 3218.25,1443.09"/>
    </edge>
    <edge id=":300000001_8" function="internal">
        <lane id=":300000001_8_0" index="0" speed="11.11" length="10.04" shape="3196.65,1434.74 3195.61,1424.75"/>
    </edge>
    <edge id=":300000001_3" function="internal">
        <lane id=":300000001_3_0" index="0" speed="11.10" length="27.52" shape="3202.01,1424.99 3202.79,1432.45 3205.75,1437.96 3210.91,1441.51 3218.25,1443.09"/>
    </edge>
    <edge id=":300000001_4" function="internal">
        <lane id=":300000001_4_0" index="0" speed="10.82" length="27.44" shape="3202.01,1424.99 3201.02,1435.14 3198.90,1442.29 3195.67,1446.45 3191.31,1447.62"/>
    </edge>
    <edge id=":300000001_5" function="internal">
        <lane id=":300000001_5_0" index="0" speed="4.72" length="9.35" shape="3202.01,1424.99 3200.32,1427.33 3198.69,1428.07 3197.12,1427.21 3195.61,1424.75"/>
    </edge>
    <edge id=":300000001_6" function="internal">
        <lane id=":300000001_6_0" index="0" speed="8.76" length="17.56" shape="3191.73,1441.23 3193.19,1440.28 3194.33,1437.21 3195.14,1432.04 3195.61,1424.75"/>
    </edge>
    <edge id=":300000001_7" function="internal">
        <lane id=":300000001_7_0" index="0" speed="4.72" length="5.97" shape="3191.73,1441.23 3194.02,1442.98 3194.71,1444.63 3194.06,1445.75"/>
    </edge>
    <edge id=":300000001_9" function="internal">
        <lane id=":300000001_9_0" index="0" speed="4.72" length="3.38" shape="3194.06,1445.75 3193.81,1446.18 3191.31,1447.62"/>
    </edge>
    <edge id=":300000002_0" function="internal">
        <lane id=":300000002_0_0" index="0" speed="11.11" length="29.32" shape="3166.40,1446.61 3137.13,1448.35"/>
    </edge>
    <edge id=":300000002_1" function="internal">
        <lane id=":300000002_1_0" index="0" speed="11.07" length="8.84" shape="3166.40,1446.61 3161.10,1445.05 3159.02,1442.46"/>
    </edge>
    <edge id=":300000002_2" function="internal">
        <lane id=":300000002_2_0" index="0" speed="4.72" length="6.00" shape="3166.40,1446.61 3164.02,1444.98 3163.24,1443.37 3163.86,1442.19"/>
    </edge>
    <edge id=":300000002_10" function="internal">
        <lane id=":300000002_10_0" index="0" speed="11.07" length="20.16" shape="3159.02,1442.46 3157.53,1440.60 3155.66,1433.27 3155.51,1423.06"/>
    </edge>
    <edge id=":300000002_11" function="internal">
        <lane id=":300000002_11_0" index="0" speed="4.72" length="3.34" shape="3163.86,1442.19 3164.07,1441.78 3166.49,1440.21"/>
    </edge>
    <edge id=":300000002_3" function="internal">
        <lane id=":300000002_3_0" index="0" speed="8.59" length="17.01" shape="3165.10,1423.65 3164.81,1430.88 3164.95,1436.05 3165.51,1439.16 3166.49,1440.21"/>
    </edge>
    <edge id=":300000002_4" function="internal">
        <lane id=":300000002_4_0" index="0" speed="11.11" length="37.41" shape="3161.91,1423.45 3159.84,1433.49 3155.06,1440.46 3147.55,1444.35 3137.33,1445.16"/>
    </edge>
    <edge id=":300000002_5" function="internal">
        <lane id=":300000002_5_0" index="0" speed="4.72" length="9.35" shape="3161.91,1423.45 3160.16,1425.75 3158.52,1426.45 3156.97,1425.56 3155.51,1423.06"/>
    </edge>
    <edge id=":300000002_6" function="internal">
        <lane id=":300000002_6_0" index="0" speed="9.26" length="19.38" shape="3138.13,1432.38 3144.10,1432.10 3148.46,1430.43 3151.20,1427.35 3152.32,1422.87"/>
    </edge>
    <edge id=":300000002_7" function="internal">
        <lane id=":300000002_7_0" index="0" speed="11.11" length="28.88" shape="3137.93,1435.57 3147.78,1436.66 3155.75,1438.19 3161.95,1439.57 3166.49,1440.21"/>
        <lane id=":300000002_7_1" index="1" speed="11.11" length="28.88" shape="3137.73,1438.76 3166.49,1440.21"/>
    </edge>
    <edge id=":300000002_9" function="internal">
        <lane id=":300000002_9_0" index="0" speed="4.72" length="4.68" shape="3137.73,1438.76 3140.03,1440.51 3140.73,1442.16"/>
    </edge>
    <edge id=":300000002_12" function="internal">
        <lane id=":300000002_12_0" index="0" speed="4.72" length="4.68" shape="3140.73,1442.16 3139.83,1443.71 3137.33,1445.16"/>
    </edge>
    <edge id=":300000003_0" function="internal">
        <lane id=":300000003_0_0" index="0" speed="9.23" length="19.49" shape="3178.71,1446.97 3177.60,1448.12 3176.77,1451.65 3176.19,1457.57 3175.89,1465.88"/>
    </edge>
    <edge id=":300000003_1" function="internal">
        <lane id=":300000003_1_0" index="0" speed="11.11" length="12.12" shape="3178.71,1446.97 3166.60,1446.62"/>
    </edge>
    <edge id=":300000003_2" function="internal">
        <lane id=":300000003_2_0" index="0" speed="10.74" length="26.32" shape="3178.71,1446.97 3175.15,1444.40 3172.17,1438.30 3170.17,1430.65 3169.55,1423.45"/>
    </edge>
    <edge id=":300000003_3" function="internal">
        <lane id=":300000003_3_0" index="0" speed="4.72" length="9.35" shape="3178.71,1446.97 3176.37,1445.28 3175.63,1443.66 3176.48,1442.09 3178.94,1440.57"/>
    </edge>
    <edge id=":300000003_4" function="internal">
        <lane id=":300000003_4_0" index="0" speed="8.92" length="17.86" shape="3175.95,1423.66 3175.93,1431.01 3176.42,1436.28 3177.43,1439.47 3178.94,1440.57"/>
    </edge>
    <edge id=":300000003_5" function="internal">
        <lane id=":300000003_5_0" index="0" speed="13.89" length="42.22" shape="3175.95,1423.66 3175.89,1465.88"/>
    </edge>
    <edge id=":300000003_6" function="internal">
        <lane id=":300000003_6_0" index="0" speed="10.86" length="19.60" shape="3175.95,1423.66 3175.08,1433.77 3173.23,1440.97 3172.12,1442.65"/>
    </edge>
    <edge id=":300000003_7" function="internal">
        <lane id=":300000003_7_0" index="0" speed="4.72" length="5.91" shape="3175.95,1423.66 3174.27,1426.00 3172.65,1426.75 3171.56,1426.16"/>
    </edge>
    <edge id=":300000003_16" function="internal">
        <lane id=":300000003_16_0" index="0" speed="10.86" length="7.16" shape="3172.12,1442.65 3170.41,1445.25 3166.60,1446.62"/>
    </edge>
    <edge id=":300000003_17" function="internal">
        <lane id=":300000003_17_0" index="0" speed="4.72" length="3.44" shape="3171.56,1426.16 3171.07,1425.90 3169.55,1423.45"/>
    </edge>
    <edge id=":300000003_8" function="internal">
        <lane id=":300000003_8_0" index="0" speed="8.83" length="17.36" shape="3166.69,1440.22 3167.74,1439.19 3168.56,1436.05 3169.17,1430.80 3169.55,1423.45"/>
    </edge>
    <edge id=":300000003_9" function="internal">
        <lane id=":300000003_9_0" index="0" speed="11.11" length="12.25" shape="3166.69,1440.22 3178.94,1440.57"/>
    </edge>
    <edge id=":300000003_10" function="internal">
        <lane id=":300000003_10_0" index="0" speed="11.10" length="28.22" shape="3166.69,1440.22 3170.14,1443.02 3173.12,1449.75 3175.18,1458.13 3175.89,1465.88"/>
    </edge>
    <edge id=":300000003_11" function="internal">
        <lane id=":300000003_11_0" index="0" speed="4.72" length="9.35" shape="3166.69,1440.22 3169.07,1441.85 3169.85,1443.46 3169.02,1445.05 3166.60,1446.62"/>
    </edge>
    <edge id=":300000003_12" function="internal">
        <lane id=":300000003_12_0" index="0" speed="9.39" length="19.92" shape="3169.49,1465.76 3169.44,1457.41 3168.94,1451.44 3167.99,1447.84 3166.60,1446.62"/>
    </edge>
    <edge id=":300000003_13" function="internal">
        <lane id=":300000003_13_0" index="0" speed="13.89" length="42.31" shape="3169.49,1465.76 3169.55,1423.45"/>
    </edge>
    <edge id=":300000003_14" function="internal">
        <lane id=":300000003_14_0" index="0" speed="11.17" length="21.65" shape="3169.49,1465.76 3170.25,1454.62 3172.08,1446.71 3173.32,1444.70"/>
    </edge>
    <edge id=":300000003_15" function="internal">
        <lane id=":300000003_15_0" index="0" speed="4.72" length="5.93" shape="3169.49,1465.76 3171.13,1463.39 3172.75,1462.62 3173.86,1463.20"/>
    </edge>
    <edge id=":300000003_18" function="internal">
        <lane id=":300000003_18_0" index="0" speed="11.17" length="7.37" shape="3173.32,1444.70 3174.98,1442.03 3178.94,1440.57"/>
    </edge>
    <edge id=":300000003_19" function="internal">
        <lane id=":300000003_19_0" index="0" speed="4.72" length="3.42" shape="3173.86,1463.20 3174.33,1463.45 3175.89,1465.88"/>
    </edge>
    <edge id=":300000004_0" function="internal">
        <lane id=":300000004_0_0" index="0" speed="16.66" length="74.50" shape="718.73,1397.79 699.41,1398.56 676.02,1400.97 655.50,1403.80 644.75,1405.81"/>
    </edge>
    <edge id=":300000004_1" function="internal">
        <lane id=":300000004_1_0" index="0" speed="25.00" length="76.71" shape="718.83,1394.60 642.08,1395.22"/>
        <lane id=":300000004_1_1" index="1" speed="25.00" length="76.71" shape="718.83,1394.60 642.19,1392.02"/>
        <lane id=":300000004_1_2" index="2" speed="25.00" length="76.71" shape="718.94,1391.40 642.19,1392.02"/>
        <lane id=":300000004_1_3" index="3" speed="25.00" length="76.71" shape="718.94,1391.40 642.30,1388.82"/>
        <lane id=":300000004_1_4" index="4" speed="25.00" length="76.71" shape="719.04,1388.20 642.30,1388.82"/>
        <lane id=":300000004_1_5" index="5" speed="25.00" length="76.71" shape="719.04,1388.20 642.41,1385.63"/>
    </edge>
    <edge id=":300000004_7" function="internal">
        <lane id=":300000004_7_0" index="0" speed="4.72" length="5.96" shape="719.04,1388.20 716.69,1386.52 715.94,1384.90 716.55,1383.77"/>
    </edge>
    <edge id=":300000004_17" function="internal">
        <lane id=":300000004_17_0" index="0" speed="4.72" length="3.39" shape="716.55,1383.77 716.79,1383.32 719.24,1381.80"/>
    </edge>
    <edge id=":300000004_8" function="internal">
        <lane id=":300000004_8_0" index="0" speed="25.00" length="76.65" shape="642.95,1369.63 719.55,1372.21"/>
        <lane id=":300000004_8_1" index="1" speed="25.00" length="76.65" shape="642.85,1372.83 719.44,1375.40"/>
        <lane id=":300000004_8_2" index="2" speed="25.00" length="76.65" shape="642.74,1376.03 719.34,1378.60"/>
        <lane id=":300000004_8_3" index="3" speed="25.00" length="76.65" shape="642.63,1379.23 719.24,1381.80"/>
    </edge>
    <edge id=":300000004_12" function="internal">
        <lane id=":300000004_12_0" index="0" speed="9.20" length="9.70" shape="642.63,1379.23 651.18,1382.94 651.33,1383.29"/>
    </edge>
    <edge id=":300000004_13" function="internal">
        <lane id=":300000004_13_0" index="0" speed="4.72" length="5.96" shape="642.63,1379.23 644.97,1380.91 645.72,1382.54 645.10,1383.66"/>
    </edge>
    <edge id=":300000004_18" function="internal">
        <lane id=":300000004_18_0" index="0" speed="9.20" length="27.12" shape="651.33,1383.29 654.51,1390.96 652.43,1399.76 644.75,1405.81"/>
    </edge>
    <edge id=":300000004_19" function="internal">
        <lane id=":300000004_19_0" index="0" speed="4.72" length="3.39" shape="645.10,1383.66 644.86,1384.11 642.41,1385.63"/>
    </edge>
    <edge id=":300000004_14" function="internal">
        <lane id=":300000004_14_0" index="0" speed="9.81" length="42.15" shape="642.73,1399.74 657.14,1394.06 661.89,1389.82 656.98,1387.01 642.41,1385.63"/>
    </edge>
    <edge id=":300000004_15" function="internal">
        <lane id=":300000004_15_0" index="0" speed="16.66" length="78.78" shape="642.73,1399.74 653.88,1396.18 675.27,1389.94 699.52,1384.11 719.24,1381.80"/>
    </edge>
    <edge id=":300000004_16" function="internal">
        <lane id=":300000004_16_0" index="0" speed="4.72" length="9.35" shape="642.73,1399.74 645.51,1400.50 646.78,1401.76 646.52,1403.53 644.75,1405.81"/>
    </edge>
    <edge id=":300000005_0" function="internal">
        <lane id=":300000005_0_0" index="0" speed="16.66" length="40.80" shape="514.04,1390.84 500.14,1389.01 488.69,1385.67 480.04,1382.47 474.58,1381.10"/>
    </edge>
    <edge id=":300000005_1" function="internal">
        <lane id=":300000005_1_0" index="0" speed="25.00" length="39.63" shape="514.15,1387.65 474.79,1388.86"/>
        <lane id=":300000005_1_1" index="1" speed="25.00" length="39.63" shape="514.15,1387.65 474.70,1385.65"/>
        <lane id=":300000005_1_2" index="2" speed="25.00" length="39.63" shape="514.26,1384.45 474.70,1385.65"/>
        <lane id=":300000005_1_3" index="3" speed="25.00" length="39.63" shape="514.26,1384.45 474.62,1382.43"/>
        <lane id=":300000005_1_4" index="4" speed="25.00" length="39.63" shape="514.37,1381.25 474.62,1382.43"/>
        <lane id=":300000005_1_5" index="5" speed="25.00" length="39.63" shape="514.37,1381.25 474.53,1379.22"/>
    </edge>
    <edge id=":300000005_7" function="internal">
        <lane id=":300000005_7_0" index="0" speed="4.72" length="5.98" shape="514.37,1381.25 512.02,1379.57 511.28,1377.94 511.90,1376.79"/>
    </edge>
    <edge id=":300000005_18" function="internal">
        <lane id=":300000005_18_0" index="0" speed="4.72" length="3.37" shape="511.90,1376.79 512.13,1376.37 514.58,1374.85"/>
    </edge>
    <edge id=":300000005_8" function="internal">
        <lane id=":300000005_8_0" index="0" speed="25.00" length="40.57" shape="474.11,1363.16 514.91,1365.26"/>
        <lane id=":300000005_8_1" index="1" speed="25.00" length="40.57" shape="474.19,1366.37 514.80,1368.45"/>
        <lane id=":300000005_8_2" index="2" speed="25.00" length="40.57" shape="474.28,1369.58 514.69,1371.65"/>
        <lane id=":300000005_8_3" index="3" speed="25.00" length="40.57" shape="474.36,1372.80 514.58,1374.85"/>
    </edge>
    <edge id=":300000005_12" function="internal">
        <lane id=":300000005_12_0" index="0" speed="5.24" length="5.67" shape="474.36,1372.80 476.99,1374.21 477.84,1376.76"/>
    </edge>
    <edge id=":300000005_13" function="internal">
        <lane id=":300000005_13_0" index="0" speed="4.73" length="6.08" shape="474.36,1372.80 476.81,1374.34 477.66,1375.92 477.07,1377.18"/>
    </edge>
    <edge id=":300000005_19" function="internal">
        <lane id=":300000005_19_0" index="0" speed="5.24" length="6.03" shape="477.84,1376.76 477.93,1377.02 477.14,1379.79 474.58,1381.10"/>
    </edge>
    <edge id=":300000005_20" function="internal">
        <lane id=":300000005_20_0" index="0" speed="4.73" length="3.30" shape="477.07,1377.18 476.90,1377.55 474.53,1379.22"/>
    </edge>
    <edge id=":300000005_14" function="internal">
        <lane id=":300000005_14_0" index="0" speed="16.66" length="40.70" shape="474.42,1374.70 480.03,1373.57 488.99,1371.27 500.76,1369.12 514.80,1368.45"/>
        <lane id=":300000005_14_1" index="1" speed="16.66" length="40.70" shape="474.42,1374.70 514.69,1371.65"/>
    </edge>
    <edge id=":300000005_16" function="internal">
        <lane id=":300000005_16_0" index="0" speed="4.72" length="9.35" shape="474.42,1374.70 476.86,1376.24 477.70,1377.82 476.94,1379.44 474.58,1381.10"/>
    </edge>
    <edge id=":300000005_17" function="internal">
        <lane id=":300000005_17_0" index="0" speed="9.97" length="48.13" shape="474.42,1374.70 456.51,1375.46 450.56,1376.46 456.57,1377.72 474.53,1379.22"/>
    </edge>
    <edge id=":300000006_0" function="internal">
        <lane id=":300000006_0_0" index="0" speed="4.72" length="9.34" shape="386.42,1491.63 383.64,1490.87 382.38,1489.60 382.63,1487.83 384.40,1485.56"/>
    </edge>
    <edge id=":300000007_0" function="internal">
        <lane id=":300000007_0_0" index="0" speed="13.89" length="40.04" shape="1623.42,3308.64 1622.61,3268.61"/>
    </edge>
    <edge id=":300000007_1" function="internal">
        <lane id=":300000007_1_0" index="0" speed="16.67" length="40.53" shape="1623.42,3308.64 1624.07,3300.94 1625.74,3288.52 1627.74,3276.14 1629.35,3268.59"/>
    </edge>
    <edge id=":300000007_2" function="internal">
        <lane id=":300000007_2_0" index="0" speed="4.72" length="6.08" shape="1623.42,3308.64 1624.96,3306.20 1626.54,3305.36 1627.81,3305.96"/>
    </edge>
    <edge id=":300000007_9" function="internal">
        <lane id=":300000007_9_0" index="0" speed="4.72" length="3.27" shape="1627.81,3305.96 1628.16,3306.12 1629.82,3308.48"/>
    </edge>
    <edge id=":300000007_3" function="internal">
        <lane id=":300000007_3_0" index="0" speed="16.67" length="40.57" shape="1636.14,3268.44 1634.47,3275.99 1632.33,3288.36 1630.53,3300.78 1629.82,3308.48"/>
    </edge>
    <edge id=":300000007_4" function="internal">
        <lane id=":300000007_4_0" index="0" speed="6.69" length="7.32" shape="1636.14,3268.44 1633.04,3272.53 1630.96,3273.21"/>
    </edge>
    <edge id=":300000007_5" function="internal">
        <lane id=":300000007_5_0" index="0" speed="4.83" length="6.71" shape="1636.14,3268.44 1634.50,3271.02 1632.82,3271.91 1631.23,3271.16"/>
    </edge>
    <edge id=":300000007_10" function="internal">
        <lane id=":300000007_10_0" index="0" speed="6.69" length="11.38" shape="1630.96,3273.21 1628.52,3274.02 1624.43,3272.76 1622.61,3268.61"/>
    </edge>
    <edge id=":300000007_11" function="internal">
        <lane id=":300000007_11_0" index="0" speed="4.83" length="3.20" shape="1631.23,3271.16 1631.10,3271.09 1629.35,3268.59"/>
    </edge>
    <edge id=":300000007_6" function="internal">
        <lane id=":300000007_6_0" index="0" speed="2.60" length="1.10" shape="1629.01,3268.53 1629.04,3268.92 1629.10,3269.07 1629.21,3268.95 1629.35,3268.59"/>
    </edge>
    <edge id=":300000007_7" function="internal">
        <lane id=":300000007_7_0" index="0" speed="13.89" length="39.95" shape="1629.01,3268.53 1629.82,3308.48"/>
    </edge>
    <edge id=":300000007_8" function="internal">
        <lane id=":300000007_8_0" index="0" speed="4.72" length="9.35" shape="1629.01,3268.53 1627.44,3270.95 1625.85,3271.77 1624.24,3270.99 1622.61,3268.61"/>
    </edge>
    <edge id=":300000008_0" function="internal">
        <lane id=":300000008_0_0" index="0" speed="11.11" length="47.55" shape="1620.91,3134.61 1620.30,3087.07"/>
    </edge>
    <edge id=":300000008_1" function="internal">
        <lane id=":300000008_1_0" index="0" speed="8.14" length="23.88" shape="1620.91,3134.61 1621.85,3125.46 1624.41,3117.39 1627.88,3113.45 1628.60,3114.10"/>
    </edge>
    <edge id=":300000008_2" function="internal">
        <lane id=":300000008_2_0" index="0" speed="4.72" length="9.35" shape="1620.91,3134.61 1622.48,3132.19 1624.07,3131.37 1625.68,3132.15 1627.31,3134.53"/>
    </edge>
    <edge id=":300000008_8" function="internal">
        <lane id=":300000008_8_0" index="0" speed="8.14" length="3.94" shape="1628.60,3114.10 1631.52,3116.74"/>
    </edge>
    <edge id=":300000008_3" function="internal">
        <lane id=":300000008_3_0" index="0" speed="9.72" length="32.75" shape="1625.67,3119.33 1623.98,3113.06 1622.25,3103.36 1620.88,3093.58 1620.30,3087.07"/>
    </edge>
    <edge id=":300000008_4" function="internal">
        <lane id=":300000008_4_0" index="0" speed="4.72" length="9.35" shape="1625.67,3119.33 1626.16,3116.48 1627.30,3115.11 1629.09,3115.19 1631.52,3116.74"/>
    </edge>
    <edge id=":300000008_5" function="internal">
        <lane id=":300000008_5_0" index="0" speed="6.19" length="15.29" shape="1625.67,3119.33 1627.31,3134.53"/>
    </edge>
    <edge id=":300000008_6" function="internal">
        <lane id=":300000008_6_0" index="0" speed="9.72" length="30.20" shape="1626.70,3086.99 1627.20,3093.10 1628.38,3102.03 1629.93,3110.87 1631.52,3116.74"/>
    </edge>
    <edge id=":300000008_7" function="internal">
        <lane id=":300000008_7_0" index="0" speed="4.72" length="5.96" shape="1626.70,3086.99 1625.13,3089.41 1623.54,3090.23 1622.39,3089.67"/>
    </edge>
    <edge id=":300000008_9" function="internal">
        <lane id=":300000008_9_0" index="0" speed="4.72" length="3.39" shape="1622.39,3089.67 1621.93,3089.45 1620.30,3087.07"/>
    </edge>
    <edge id=":300000009_0" function="internal">
        <lane id=":300000009_0_0" index="0" speed="12.50" length="30.18" shape="1630.51,3149.26 1630.03,3143.14 1628.87,3134.22 1627.34,3125.38 1625.75,3119.51"/>
    </edge>
    <edge id=":300000009_1" function="internal">
        <lane id=":300000009_1_0" index="0" speed="4.72" length="5.96" shape="1630.51,3149.26 1632.09,3146.84 1633.68,3146.03 1634.83,3146.59"/>
    </edge>
    <edge id=":300000009_8" function="internal">
        <lane id=":300000009_8_0" index="0" speed="4.72" length="3.39" shape="1634.83,3146.59 1635.29,3146.81 1636.91,3149.19"/>
    </edge>
    <edge id=":300000009_2" function="internal">
        <lane id=":300000009_2_0" index="0" speed="16.67" length="47.34" shape="1636.46,3101.86 1636.91,3149.19"/>
    </edge>
    <edge id=":300000009_3" function="internal">
        <lane id=":300000009_3_0" index="0" speed="8.12" length="23.72" shape="1636.46,3101.86 1635.48,3110.93 1632.88,3118.92 1629.39,3122.79 1628.66,3122.14"/>
    </edge>
    <edge id=":300000009_4" function="internal">
        <lane id=":300000009_4_0" index="0" speed="4.72" length="9.35" shape="1636.46,3101.86 1634.89,3104.27 1633.29,3105.09 1631.69,3104.30 1630.06,3101.92"/>
    </edge>
    <edge id=":300000009_9" function="internal">
        <lane id=":300000009_9_0" index="0" speed="8.12" length="3.92" shape="1628.66,3122.14 1625.75,3119.51"/>
    </edge>
    <edge id=":300000009_5" function="internal">
        <lane id=":300000009_5_0" index="0" speed="12.50" length="32.76" shape="1631.60,3116.92 1633.28,3123.19 1635.00,3132.90 1636.34,3142.69 1636.91,3149.19"/>
    </edge>
    <edge id=":300000009_6" function="internal">
        <lane id=":300000009_6_0" index="0" speed="4.72" length="9.35" shape="1631.60,3116.92 1631.11,3119.77 1629.97,3121.14 1628.18,3121.06 1625.75,3119.51"/>
    </edge>
    <edge id=":300000009_7" function="internal">
        <lane id=":300000009_7_0" index="0" speed="6.16" length="15.09" shape="1631.60,3116.92 1630.06,3101.92"/>
    </edge>
    <edge id=":300000010_0" function="internal">
        <lane id=":300000010_0_0" index="0" speed="5.40" length="6.09" shape="1914.69,4434.35 1912.22,4434.11 1910.43,4434.14 1909.34,4434.44 1908.94,4435.00"/>
    </edge>
    <edge id=":300000010_1" function="internal">
        <lane id=":300000010_1_0" index="0" speed="8.33" length="13.82" shape="1914.69,4434.35 1901.01,4432.38"/>
    </edge>
    <edge id=":300000010_2" function="internal">
        <lane id=":300000010_2_0" index="0" speed="11.99" length="32.10" shape="1914.69,4434.35 1910.93,4430.67 1907.73,4422.58 1905.64,4412.95 1905.22,4404.68"/>
    </edge>
    <edge id=":300000010_3" function="internal">
        <lane id=":300000010_3_0" index="0" speed="4.72" length="9.35" shape="1914.69,4434.35 1912.52,4432.44 1911.94,4430.75 1912.95,4429.27 1915.55,4428.00"/>
    </edge>
    <edge id=":300000010_4" function="internal">
        <lane id=":300000010_4_0" index="0" speed="10.50" length="24.32" shape="1911.59,4405.25 1911.10,4414.90 1911.59,4421.91 1913.08,4426.28 1915.55,4428.00"/>
    </edge>
    <edge id=":300000010_5" function="internal">
        <lane id=":300000010_5_0" index="0" speed="16.67" length="29.87" shape="1911.59,4405.25 1908.94,4435.00"/>
    </edge>
    <edge id=":300000010_6" function="internal">
        <lane id=":300000010_6_0" index="0" speed="11.19" length="24.09" shape="1911.59,4405.25 1910.12,4413.29 1907.38,4422.32 1904.72,4428.23"/>
    </edge>
    <edge id=":300000010_7" function="internal">
        <lane id=":300000010_7_0" index="0" speed="4.72" length="5.96" shape="1911.59,4405.25 1909.78,4407.50 1908.12,4408.15 1907.03,4407.48"/>
    </edge>
    <edge id=":300000010_16" function="internal">
        <lane id=":300000010_16_0" index="0" speed="11.19" length="5.65" shape="1904.72,4428.23 1904.11,4429.59 1901.01,4432.38"/>
    </edge>
    <edge id=":300000010_17" function="internal">
        <lane id=":300000010_17_0" index="0" speed="4.72" length="3.39" shape="1907.03,4407.48 1906.60,4407.21 1905.22,4404.68"/>
    </edge>
    <edge id=":300000010_8" function="internal">
        <lane id=":300000010_8_0" index="0" speed="9.63" length="21.74" shape="1901.87,4426.03 1902.61,4424.77 1903.41,4420.79 1904.28,4414.09 1905.22,4404.68"/>
    </edge>
    <edge id=":300000010_9" function="internal">
        <lane id=":300000010_9_0" index="0" speed="8.33" length="13.81" shape="1901.87,4426.03 1915.55,4428.00"/>
    </edge>
    <edge id=":300000010_10" function="internal">
        <lane id=":300000010_10_0" index="0" speed="7.62" length="12.28" shape="1901.87,4426.03 1904.61,4427.12 1906.94,4429.29 1908.50,4432.07 1908.94,4435.00"/>
    </edge>
    <edge id=":300000010_11" function="internal">
        <lane id=":300000010_11_0" index="0" speed="4.72" length="9.35" shape="1901.87,4426.03 1904.04,4427.94 1904.61,4429.64 1903.61,4431.11 1901.01,4432.38"/>
    </edge>
    <edge id=":300000010_12" function="internal">
        <lane id=":300000010_12_0" index="0" speed="4.14" length="2.92" shape="1902.56,4434.45 1902.52,4433.63 1902.25,4433.01 1901.75,4432.59 1901.01,4432.38"/>
    </edge>
    <edge id=":300000010_13" function="internal">
        <lane id=":300000010_13_0" index="0" speed="16.67" length="29.90" shape="1902.56,4434.45 1905.22,4404.68"/>
    </edge>
    <edge id=":300000010_14" function="internal">
        <lane id=":300000010_14_0" index="0" speed="8.20" length="6.55" shape="1902.56,4434.45 1904.06,4431.64 1906.87,4429.80"/>
    </edge>
    <edge id=":300000010_15" function="internal">
        <lane id=":300000010_15_0" index="0" speed="4.72" length="5.96" shape="1902.56,4434.45 1904.36,4432.20 1906.02,4431.54 1907.12,4432.21"/>
    </edge>
    <edge id=":300000010_18" function="internal">
        <lane id=":300000010_18_0" index="0" speed="8.20" length="8.98" shape="1906.87,4429.80 1907.39,4429.46 1911.55,4428.17 1915.55,4428.00"/>
    </edge>
    <edge id=":300000010_19" function="internal">
        <lane id=":300000010_19_0" index="0" speed="4.72" length="3.39" shape="1907.12,4432.21 1907.55,4432.47 1908.94,4435.00"/>
    </edge>
    <edge id=":300000011_0" function="internal">
        <lane id=":300000011_0_0" index="0" speed="3.86" length="2.67" shape="1931.12,4436.67 1930.31,4436.63 1929.72,4436.81 1929.33,4437.23 1929.16,4437.88"/>
    </edge>
    <edge id=":300000011_1" function="internal">
        <lane id=":300000011_1_0" index="0" speed="11.11" length="14.23" shape="1931.12,4436.67 1917.04,4434.66"/>
    </edge>
    <edge id=":300000011_2" function="internal">
        <lane id=":300000011_2_0" index="0" speed="11.86" length="30.36" shape="1931.12,4436.67 1928.58,4433.08 1926.61,4425.13 1925.47,4415.64 1925.43,4407.43"/>
    </edge>
    <edge id=":300000011_3" function="internal">
        <lane id=":300000011_3_0" index="0" speed="4.72" length="9.34" shape="1931.12,4436.67 1929.03,4434.69 1928.52,4432.97 1929.58,4431.53 1932.22,4430.37"/>
    </edge>
    <edge id=":300000011_4" function="internal">
        <lane id=":300000011_4_0" index="0" speed="10.30" length="22.66" shape="1931.79,4408.00 1931.09,4417.63 1930.92,4424.57 1931.30,4428.82 1932.22,4430.37"/>
    </edge>
    <edge id=":300000011_5" function="internal">
        <lane id=":300000011_5_0" index="0" speed="12.50" length="29.99" shape="1931.79,4408.00 1929.16,4437.88"/>
    </edge>
    <edge id=":300000011_6" function="internal">
        <lane id=":300000011_6_0" index="0" speed="11.52" length="19.26" shape="1931.79,4408.00 1929.91,4416.00 1926.13,4424.92 1925.39,4426.05"/>
    </edge>
    <edge id=":300000011_7" function="internal">
        <lane id=":300000011_7_0" index="0" speed="4.72" length="5.94" shape="1931.79,4408.00 1929.99,4410.25 1928.32,4410.90 1927.24,4410.23"/>
    </edge>
    <edge id=":300000011_16" function="internal">
        <lane id=":300000011_16_0" index="0" speed="11.52" length="12.32" shape="1925.39,4426.05 1921.49,4432.05 1917.04,4434.66"/>
    </edge>
    <edge id=":300000011_17" function="internal">
        <lane id=":300000011_17_0" index="0" speed="4.72" length="3.39" shape="1927.24,4410.23 1926.80,4409.96 1925.43,4407.43"/>
    </edge>
    <edge id=":300000011_8" function="internal">
        <lane id=":300000011_8_0" index="0" speed="9.98" length="23.47" shape="1917.88,4428.32 1920.46,4427.30 1922.58,4423.48 1924.23,4416.86 1925.43,4407.43"/>
    </edge>
    <edge id=":300000011_9" function="internal">