<?xml version="1.0" encoding="UTF-8"?>

<!-- generated on 2025-07-27 19:14:08 by Eclipse SUMO netconvert Version 1.23.1
<netconvertConfiguration xmlns:xsi="http://www.w3.org/2001/XMLSchema-instance" xsi:noNamespaceSchemaLocation="http://sumo.dlr.de/xsd/netconvertConfiguration.xsd">

    <input>
        <osm-files value="wuhan_toy.osm"/>
    </input>

    <output>
        <output-file value="wuhan_toy.net.xml"/>
    </output>

    <projection>
        <proj.utm value="true"/>
    </projection>

</netconvertConfiguration>
-->

<net version="1.20" junctionCornerDetail="5" limitTurnSpeed="5.50" xmlns:xsi="http://www.w3.org/2001/XMLSchema-instance" xsi:noNamespaceSchemaLocation="http://sumo.dlr.de/xsd/net_file.xsd">

    <location netOffset="-253024.73,-3372921.51" convBoundary="0.00,0.00,21912.49,4346.62" origBoundary="114.426991,30.465725,114.655141,30.504302" projParameter="+proj=utm +zone=50 +ellps=WGS84 +datum=WGS84 +units=m +no_defs"/>

    <type id="highway.cycleway" priority="1" numLanes="1" speed="5.56" allow="bicycle" oneway="0" width="2.00"/>
    <type id="highway.path" priority="1" numLanes="1" speed="5.56" allow="pedestrian bicycle" oneway="0" width="2.00"/>
    <type id="highway.pedestrian" priority="1" numLanes="1" speed="2.78" allow="pedestrian" oneway="1" width="2.00"/>
    <type id="highway.primary" priority="12" numLanes="2" speed="27.78" disallow="tram rail_urban rail rail_electric rail_fast ship container cable_car subway aircraft wheelchair scooter drone" oneway="0"/>
    <type id="highway.primary_link" priority="7" numLanes="1" speed="22.22" disallow="tram rail_urban rail rail_electric rail_fast ship container cable_car subway aircraft wheelchair scooter drone" oneway="0"/>
    <type id="highway.residential" priority="3" numLanes="1" speed="13.89" disallow="tram rail_urban rail rail_electric rail_fast ship container cable_car subway aircraft wheelchair scooter drone" oneway="0"/>
    <type id="highway.secondary" priority="11" numLanes="1" speed="27.78" disallow="tram rail_urban rail rail_electric rail_fast ship container cable_car subway aircraft wheelchair scooter drone" oneway="0"/>
    <type id="highway.secondary_link" priority="6" numLanes="1" speed="22.22" disallow="tram rail_urban rail rail_electric rail_fast ship container cable_car subway aircraft wheelchair scooter drone" oneway="0"/>
    <type id="highway.service" priority="1" numLanes="1" speed="5.56" allow="pedestrian delivery bicycle" oneway="0"/>
    <type id="highway.tertiary" priority="10" numLanes="1" speed="22.22" disallow="tram rail_urban rail rail_electric rail_fast ship container cable_car subway aircraft wheelchair scooter drone" oneway="0"/>
    <type id="highway.tertiary_link" priority="5" numLanes="1" speed="22.22" disallow="tram rail_urban rail rail_electric rail_fast ship container cable_car subway aircraft wheelchair scooter drone" oneway="0"/>
    <type id="highway.trunk" priority="13" numLanes="2" speed="27.78" disallow="pedestrian bicycle tram rail_urban rail rail_electric rail_fast ship container cable_car subway aircraft wheelchair scooter drone" oneway="0"/>
    <type id="highway.trunk_link" priority="8" numLanes="1" speed="22.22" disallow="pedestrian bicycle tram rail_urban rail rail_electric rail_fast ship container cable_car subway aircraft wheelchair scooter drone" oneway="0"/>
    <type id="highway.unclassified" priority="4" numLanes="1" speed="13.89" disallow="tram rail_urban rail rail_electric rail_fast ship container cable_car subway aircraft wheelchair scooter drone" oneway="0"/>
    <type id="railway.subway" priority="18" numLanes="1" speed="27.78" allow="subway" oneway="1"/>
    <type id="railway.tram" priority="17" numLanes="1" speed="13.89" allow="tram" oneway="1"/>

    <edge id=":10284061096_0" function="internal">
        <lane id=":10284061096_0_0" index="0" allow="subway" speed="27.78" length="3.01" shape="10772.92,2849.70 10773.81,2849.79 10774.42,2849.85 10775.03,2849.87 10775.92,2849.89"/>
    </edge>
    <edge id=":10284061096_1" function="internal">
        <lane id=":10284061096_1_0" index="0" disallow="tram rail_urban rail rail_electric rail_fast ship container cable_car subway aircraft wheelchair scooter drone" speed="27.78" length="3.00" shape="10772.92,2848.27 10775.92,2848.27"/>
        <lane id=":10284061096_1_1" index="1" disallow="tram rail_urban rail rail_electric rail_fast ship container cable_car subway aircraft wheelchair scooter drone" speed="27.78" length="3.00" shape="10772.92,2851.47 10775.92,2851.47"/>
    </edge>
    <edge id=":10284082760_0" function="internal">
        <lane id=":10284082760_0_0" index="0" disallow="tram rail_urban rail rail_electric rail_fast ship container cable_car subway aircraft wheelchair scooter drone" speed="27.78" length="34.47" shape="6531.71,2556.88 6566.18,2555.95"/>
        <lane id=":10284082760_0_1" index="1" disallow="tram rail_urban rail rail_electric rail_fast ship container cable_car subway aircraft wheelchair scooter drone" speed="27.78" length="34.47" shape="6531.79,2560.08 6566.24,2559.15"/>
    </edge>
    <edge id=":10284082760_2" function="internal">
        <lane id=":10284082760_2_0" index="0" allow="subway" speed="27.78" length="34.60" shape="6532.15,2563.48 6566.21,2557.42"/>
    </edge>
    <edge id=":11341721493_0" function="internal">
        <lane id=":11341721493_0_0" index="0" allow="pedestrian delivery bicycle" speed="3.65" length="4.67" shape="9560.56,3221.36 9559.80,3222.59 9559.01,3223.01 9558.20,3222.63 9557.37,3221.45"/>
    </edge>
    <edge id=":11341721504_0" function="internal">
        <lane id=":11341721504_0_0" index="0" allow="pedestrian delivery bicycle" speed="5.56" length="16.43" shape="9704.95,3170.81 9702.91,3174.28 9700.62,3177.93 9698.00,3181.22 9694.96,3183.65"/>
    </edge>
    <edge id=":11341721504_1" function="internal">
        <lane id=":11341721504_1_0" index="0" allow="pedestrian delivery bicycle" speed="5.56" length="20.35" shape="9704.95,3170.81 9700.90,3176.37 9697.92,3177.80 9696.03,3175.10 9695.22,3168.27"/>
    </edge>
    <edge id=":11341721504_2" function="internal">
        <lane id=":11341721504_2_0" index="0" allow="pedestrian delivery bicycle" speed="3.65" length="4.67" shape="9704.95,3170.81 9703.64,3171.43 9702.75,3171.36 9702.27,3170.60 9702.21,3169.16"/>
    </edge>
    <edge id=":11341721504_3" function="internal">
        <lane id=":11341721504_3_0" index="0" allow="pedestrian delivery bicycle" speed="4.83" length="7.93" shape="9698.42,3168.17 9698.73,3170.83 9699.47,3171.88 9700.63,3171.33 9702.21,3169.16"/>
    </edge>
    <edge id=":11341721504_4" function="internal">
        <lane id=":11341721504_4_0" index="0" allow="pedestrian delivery bicycle" speed="5.56" length="16.37" shape="9698.42,3168.17 9698.35,3174.14 9697.76,3178.71 9696.62,3181.88 9694.96,3183.65"/>
    </edge>
    <edge id=":11341721504_5" function="internal">
        <lane id=":11341721504_5_0" index="0" allow="pedestrian delivery bicycle" speed="3.65" length="4.67" shape="9698.42,3168.17 9697.65,3169.40 9696.87,3169.82 9696.06,3169.44 9695.22,3168.27"/>
    </edge>
    <edge id=":11341721504_6" function="internal">
        <lane id=":11341721504_6_0" index="0" allow="pedestrian delivery bicycle" speed="5.56" length="12.97" shape="9693.40,3180.85 9694.33,3179.61 9694.94,3177.11 9695.24,3173.32 9695.22,3168.27"/>
    </edge>
    <edge id=":11341721504_7" function="internal">
        <lane id=":11341721504_7_0" index="0" allow="pedestrian delivery bicycle" speed="5.56" length="14.81" shape="9693.40,3180.85 9696.26,3178.60 9698.48,3175.70 9700.36,3172.45 9702.21,3169.16"/>
    </edge>
    <edge id=":11341721504_8" function="internal">
        <lane id=":11341721504_8_0" index="0" allow="pedestrian delivery bicycle" speed="3.65" length="4.67" shape="9693.40,3180.85 9694.84,3180.97 9695.58,3181.47 9695.62,3182.37 9694.96,3183.65"/>
    </edge>
    <edge id=":11341721507_0" function="internal">
        <lane id=":11341721507_0_0" index="0" allow="pedestrian delivery bicycle" speed="5.56" length="9.40" shape="9556.63,3193.72 9556.39,3184.32"/>
    </edge>
    <edge id=":11341721507_1" function="internal">
        <lane id=":11341721507_1_0" index="0" allow="pedestrian delivery bicycle" speed="5.56" length="10.16" shape="9556.63,3193.72 9556.96,3190.97 9558.09,3188.97 9560.03,3187.73 9562.78,3187.24"/>
    </edge>
    <edge id=":11341721507_2" function="internal">
        <lane id=":11341721507_2_0" index="0" allow="pedestrian delivery bicycle" speed="3.65" length="4.67" shape="9556.63,3193.72 9557.40,3192.50 9558.19,3192.08 9559.00,3192.46 9559.83,3193.64"/>
    </edge>
    <edge id=":11341721507_3" function="internal">
        <lane id=":11341721507_3_0" index="0" allow="pedestrian delivery bicycle" speed="5.07" length="5.03" shape="9562.89,3190.44 9561.52,3190.68 9560.56,3191.29 9559.99,3192.28 9559.83,3193.64"/>
    </edge>
    <edge id=":11341721507_4" function="internal">
        <lane id=":11341721507_4_0" index="0" allow="pedestrian delivery bicycle" speed="5.56" length="10.20" shape="9562.89,3190.44 9560.11,3190.14 9558.10,3189.02 9556.86,3187.08 9556.39,3184.32"/>
    </edge>
    <edge id=":11341721507_5" function="internal">
        <lane id=":11341721507_5_0" index="0" allow="pedestrian delivery bicycle" speed="3.65" length="4.67" shape="9562.89,3190.44 9561.66,3189.68 9561.23,3188.90 9561.61,3188.08 9562.78,3187.24"/>
    </edge>
    <edge id=":11341721507_6" function="internal">
        <lane id=":11341721507_6_0" index="0" allow="pedestrian delivery bicycle" speed="5.03" length="5.01" shape="9559.59,3184.24 9559.82,3185.59 9560.43,3186.55 9561.41,3187.10 9562.78,3187.24"/>
    </edge>
    <edge id=":11341721507_7" function="internal">
        <lane id=":11341721507_7_0" index="0" allow="pedestrian delivery bicycle" speed="5.56" length="9.40" shape="9559.59,3184.24 9559.83,3193.64"/>
    </edge>
    <edge id=":11341721507_8" function="internal">
        <lane id=":11341721507_8_0" index="0" allow="pedestrian delivery bicycle" speed="3.65" length="4.67" shape="9559.59,3184.24 9558.82,3185.46 9558.03,3185.88 9557.22,3185.50 9556.39,3184.32"/>
    </edge>
    <edge id=":11341721520_0" function="internal">
        <lane id=":11341721520_0_0" index="0" allow="pedestrian delivery bicycle" speed="5.03" length="5.01" shape="9689.41,2978.60 9689.17,2977.25 9688.56,2976.30 9687.57,2975.75 9686.21,2975.61"/>
    </edge>
    <edge id=":11341721520_1" function="internal">
        <lane id=":11341721520_1_0" index="0" allow="pedestrian delivery bicycle" speed="5.56" length="10.16" shape="9689.41,2978.60 9689.72,2975.83 9690.83,2973.82 9692.75,2972.56 9695.48,2972.07"/>
    </edge>
    <edge id=":11341721520_2" function="internal">
        <lane id=":11341721520_2_0" index="0" allow="pedestrian delivery bicycle" speed="3.65" length="4.67" shape="9689.41,2978.60 9690.17,2977.38 9690.96,2976.96 9691.77,2977.33 9692.61,2978.51"/>
    </edge>
    <edge id=":11341721520_3" function="internal">
        <lane id=":11341721520_3_0" index="0" allow="pedestrian delivery bicycle" speed="5.06" length="5.02" shape="9695.60,2975.26 9694.25,2975.51 9693.31,2976.13 9692.76,2977.13 9692.61,2978.51"/>
    </edge>
    <edge id=":11341721520_4" function="internal">
        <lane id=":11341721520_4_0" index="0" allow="pedestrian delivery bicycle" speed="5.56" length="9.40" shape="9695.60,2975.26 9686.21,2975.61"/>
    </edge>
    <edge id=":11341721520_5" function="internal">
        <lane id=":11341721520_5_0" index="0" allow="pedestrian delivery bicycle" speed="3.65" length="4.67" shape="9695.60,2975.26 9694.37,2974.51 9693.94,2973.72 9694.31,2972.91 9695.48,2972.07"/>
    </edge>
    <edge id=":11341721520_6" function="internal">
        <lane id=":11341721520_6_0" index="0" allow="pedestrian delivery bicycle" speed="5.56" length="9.40" shape="9686.09,2972.41 9695.48,2972.07"/>
    </edge>
    <edge id=":11341721520_7" function="internal">
        <lane id=":11341721520_7_0" index="0" allow="pedestrian delivery bicycle" speed="5.56" length="10.19" shape="9686.09,2972.41 9688.87,2972.71 9690.88,2973.82 9692.13,2975.75 9692.61,2978.51"/>
    </edge>
    <edge id=":11341721520_8" function="internal">
        <lane id=":11341721520_8_0" index="0" allow="pedestrian delivery bicycle" speed="3.65" length="4.67" shape="9686.09,2972.41 9687.32,2973.17 9687.75,2973.95 9687.38,2974.77 9686.21,2975.61"/>
    </edge>
    <edge id=":1150841393_0" function="internal">
        <lane id=":1150841393_0_0" index="0" disallow="pedestrian bicycle tram rail_urban rail rail_electric rail_fast ship container cable_car subway aircraft wheelchair scooter drone" speed="27.78" length="8.15" shape="10591.48,2878.47 10589.13,2878.54 10587.53,2878.98 10585.92,2879.44 10583.56,2879.58"/>
        <lane id=":1150841393_0_1" index="1" disallow="pedestrian bicycle tram rail_urban rail rail_electric rail_fast ship container cable_car subway aircraft wheelchair scooter drone" speed="27.78" length="8.15" shape="10591.48,2878.47 10589.14,2878.04 10587.60,2877.38 10586.06,2876.74 10583.72,2876.38"/>
        <lane id=":1150841393_0_2" index="2" disallow="pedestrian bicycle tram rail_urban rail rail_electric rail_fast ship container cable_car subway aircraft wheelchair scooter drone" speed="27.78" length="8.15" shape="10591.73,2875.28 10589.37,2874.85 10587.81,2874.19 10586.24,2873.55 10583.87,2873.18"/>
        <lane id=":1150841393_0_3" index="3" disallow="pedestrian bicycle tram rail_urban rail rail_electric rail_fast ship container cable_car subway aircraft wheelchair scooter drone" speed="27.78" length="8.15" shape="10591.98,2872.09 10589.59,2871.66 10588.01,2870.99 10586.43,2870.35 10584.03,2869.99"/>
    </edge>
    <edge id=":11834747386_0" function="internal">
        <lane id=":11834747386_0_0" index="0" disallow="tram rail_urban rail rail_electric rail_fast ship container cable_car subway aircraft wheelchair scooter drone" speed="27.78" length="7.98" shape="10358.26,2881.41 10355.98,2881.65 10354.47,2882.22 10352.97,2882.84 10350.69,2883.23"/>
        <lane id=":11834747386_0_1" index="1" disallow="tram rail_urban rail rail_electric rail_fast ship container cable_car subway aircraft wheelchair scooter drone" speed="27.78" length="7.98" shape="10358.26,2881.41 10355.93,2881.15 10354.37,2880.62 10352.81,2880.14 10350.49,2880.04"/>
        <lane id=":11834747386_0_2" index="2" disallow="tram rail_urban rail rail_electric rail_fast ship container cable_car subway aircraft wheelchair scooter drone" speed="27.78" length="7.98" shape="10358.27,2878.21 10355.88,2877.95 10354.28,2877.42 10352.67,2876.95 10350.29,2876.84"/>
    </edge>
    <edge id=":11834747388_0" function="internal">
        <lane id=":11834747388_0_0" index="0" disallow="tram rail_urban rail rail_electric rail_fast ship container cable_car subway aircraft wheelchair scooter drone" speed="27.78" length="7.79" shape="10381.27,2880.26 10379.05,2880.29 10377.54,2880.72 10376.03,2881.22 10373.79,2881.46"/>
        <lane id=":11834747388_0_1" index="1" disallow="tram rail_urban rail rail_electric rail_fast ship container cable_car subway aircraft wheelchair scooter drone" speed="27.78" length="7.79" shape="10381.61,2877.08 10379.29,2877.09 10377.71,2877.52 10376.14,2878.03 10373.80,2878.26"/>
    </edge>
    <edge id=":11834747389_0" function="internal">
        <lane id=":11834747389_0_0" index="0" disallow="tram rail_urban rail rail_electric rail_fast ship container cable_car subway aircraft wheelchair scooter drone" speed="27.78" length="25.61" shape="10328.62,2884.62 10320.96,2884.82 10315.71,2884.47 10310.46,2883.99 10302.78,2883.79"/>
        <lane id=":11834747389_0_1" index="1" disallow="tram rail_urban rail rail_electric rail_fast ship container cable_car subway aircraft wheelchair scooter drone" speed="27.78" length="25.61" shape="10328.42,2881.43 10320.84,2881.62 10315.65,2881.27 10310.45,2880.79 10302.85,2880.59"/>
        <lane id=":11834747389_0_2" index="2" disallow="tram rail_urban rail rail_electric rail_fast ship container cable_car subway aircraft wheelchair scooter drone" speed="27.78" length="25.61" shape="10328.22,2878.24 10320.72,2878.43 10315.58,2878.07 10310.44,2877.59 10302.92,2877.39"/>
    </edge>
    <edge id=":11834747389_3" function="internal">
        <lane id=":11834747389_3_0" index="0" disallow="pedestrian bicycle tram rail_urban rail rail_electric rail_fast ship container cable_car subway aircraft wheelchair scooter drone" speed="25.00" length="23.28" shape="10328.22,2878.24 10320.50,2878.02 10314.39,2876.73 10309.53,2875.07 10305.57,2873.74"/>
    </edge>
    <edge id=":11834747397_0" function="internal">
        <lane id=":11834747397_0_0" index="0" disallow="pedestrian bicycle tram rail_urban rail rail_electric rail_fast ship container cable_car subway aircraft wheelchair scooter drone" speed="25.00" length="19.30" shape="10305.37,2873.69 10301.78,2872.59 10297.89,2871.40 10293.16,2870.43 10287.04,2870.02"/>
        <lane id=":11834747397_0_1" index="1" disallow="pedestrian bicycle tram rail_urban rail rail_electric rail_fast ship container cable_car subway aircraft wheelchair scooter drone" speed="25.00" length="19.30" shape="10305.37,2873.69 10301.84,2872.09 10298.06,2869.80 10293.36,2867.73 10287.05,2866.82"/>
    </edge>
    <edge id=":11834747397_2" function="internal">
        <lane id=":11834747397_2_0" index="0" disallow="pedestrian bicycle tram rail_urban rail rail_electric rail_fast ship container cable_car subway aircraft wheelchair scooter drone" speed="27.78" length="20.95" shape="10307.98,2870.09 10287.04,2870.02"/>
        <lane id=":11834747397_2_1" index="1" disallow="pedestrian bicycle tram rail_urban rail rail_electric rail_fast ship container cable_car subway aircraft wheelchair scooter drone" speed="27.78" length="20.95" shape="10308.00,2866.89 10287.05,2866.82"/>
        <lane id=":11834747397_2_2" index="2" disallow="pedestrian bicycle tram rail_urban rail rail_electric rail_fast ship container cable_car subway aircraft wheelchair scooter drone" speed="27.78" length="20.95" shape="10308.01,2863.69 10287.06,2863.62"/>
        <lane id=":11834747397_2_3" index="3" disallow="pedestrian bicycle tram rail_urban rail rail_electric rail_fast ship container cable_car subway aircraft wheelchair scooter drone" speed="27.78" length="20.95" shape="10308.02,2860.49 10287.07,2860.42"/>
    </edge>
    <edge id=":11834747398_0" function="internal">
        <lane id=":11834747398_0_0" index="0" disallow="tram rail_urban rail rail_electric rail_fast ship container cable_car subway aircraft wheelchair scooter drone" speed="27.78" length="0.45" shape="9757.02,2903.77 9757.44,2903.75"/>
        <lane id=":11834747398_0_1" index="1" disallow="tram rail_urban rail rail_electric rail_fast ship container cable_car subway aircraft wheelchair scooter drone" speed="27.78" length="0.45" shape="9756.83,2900.58 9757.28,2900.56"/>
        <lane id=":11834747398_0_2" index="2" disallow="tram rail_urban rail rail_electric rail_fast ship container cable_car subway aircraft wheelchair scooter drone" speed="27.78" length="0.45" shape="9756.64,2897.38 9757.13,2897.36"/>
    </edge>
    <edge id=":11834747399_0" function="internal">
        <lane id=":11834747399_0_0" index="0" disallow="tram rail_urban rail rail_electric rail_fast ship container cable_car subway aircraft wheelchair scooter drone" speed="22.22" length="0.10" shape="9771.33,2912.48 9771.33,2912.48"/>
    </edge>
    <edge id=":11834747401_0" function="internal">
        <lane id=":11834747401_0_0" index="0" disallow="tram rail_urban rail rail_electric rail_fast ship container cable_car subway aircraft wheelchair scooter drone" speed="12.36" length="15.34" shape="9756.74,2909.14 9753.92,2906.93 9750.63,2905.42 9746.85,2904.60 9742.58,2904.48"/>
    </edge>
    <edge id=":11834747401_1" function="internal">
        <lane id=":11834747401_1_0" index="0" disallow="tram rail_urban rail rail_electric rail_fast ship container cable_car subway aircraft wheelchair scooter drone" speed="27.78" length="14.67" shape="9757.24,2903.76 9742.58,2904.48"/>
        <lane id=":11834747401_1_1" index="1" disallow="tram rail_urban rail rail_electric rail_fast ship container cable_car subway aircraft wheelchair scooter drone" speed="27.78" length="14.67" shape="9757.08,2900.57 9742.43,2901.28"/>
        <lane id=":11834747401_1_2" index="2" disallow="tram rail_urban rail rail_electric rail_fast ship container cable_car subway aircraft wheelchair scooter drone" speed="27.78" length="14.67" shape="9756.93,2897.37 9742.27,2898.08"/>
    </edge>
    <edge id=":11834747403_0" function="internal">
        <lane id=":11834747403_0_0" index="0" allow="tram" speed="13.89" length="0.24" shape="9788.51,2911.73 9788.51,2911.97"/>
    </edge>
    <edge id=":11834747404_0" function="internal">
        <lane id=":11834747404_0_0" index="0" allow="tram" speed="13.89" length="0.28" shape="9787.71,2838.67 9787.71,2838.95"/>
    </edge>
    <edge id=":11834747405_0" function="internal">
        <lane id=":11834747405_0_0" index="0" allow="tram" speed="13.89" length="0.30" shape="9777.78,2839.28 9777.77,2838.98"/>
    </edge>
    <edge id=":11834747406_0" function="internal">
        <lane id=":11834747406_0_0" index="0" disallow="tram rail_urban rail rail_electric rail_fast ship container cable_car subway aircraft wheelchair scooter drone" speed="6.46" length="9.03" shape="9771.18,2908.58 9770.74,2906.14 9769.61,2904.44 9767.82,2903.49 9765.34,2903.28"/>
    </edge>
    <edge id=":11834747406_1" function="internal">
        <lane id=":11834747406_1_0" index="0" disallow="tram rail_urban rail rail_electric rail_fast ship container cable_car subway aircraft wheelchair scooter drone" speed="22.22" length="16.79" shape="9771.18,2908.58 9770.54,2891.81"/>
    </edge>
    <edge id=":11834747406_2" function="internal">
        <lane id=":11834747406_2_0" index="0" disallow="tram rail_urban rail rail_electric rail_fast ship container cable_car subway aircraft wheelchair scooter drone" speed="27.78" length="10.76" shape="9776.09,2902.65 9765.34,2903.28"/>
        <lane id=":11834747406_2_1" index="1" disallow="tram rail_urban rail rail_electric rail_fast ship container cable_car subway aircraft wheelchair scooter drone" speed="27.78" length="10.76" shape="9775.90,2899.45 9765.15,2900.09"/>
        <lane id=":11834747406_2_2" index="2" disallow="tram rail_urban rail rail_electric rail_fast ship container cable_car subway aircraft wheelchair scooter drone" speed="27.78" length="10.76" shape="9775.70,2896.26 9764.97,2896.89"/>
    </edge>
    <edge id=":11834747406_5" function="internal">
        <lane id=":11834747406_5_0" index="0" disallow="tram rail_urban rail rail_electric rail_fast ship container cable_car subway aircraft wheelchair scooter drone" speed="6.06" length="7.81" shape="9775.70,2896.26 9773.51,2896.09 9771.92,2895.29 9770.93,2893.87 9770.54,2891.81"/>
    </edge>
    <edge id=":11834747407_0" function="internal">
        <lane id=":11834747407_0_0" index="0" allow="tram" speed="13.89" length="12.75" shape="9778.86,2905.65 9778.65,2892.91"/>
    </edge>
    <edge id=":11834747407_1" function="internal">
        <lane id=":11834747407_1_0" index="0" disallow="tram rail_urban rail rail_electric rail_fast ship container cable_car subway aircraft wheelchair scooter drone" speed="27.78" length="5.97" shape="9782.25,2902.28 9776.29,2902.64"/>
        <lane id=":11834747407_1_1" index="1" disallow="tram rail_urban rail rail_electric rail_fast ship container cable_car subway aircraft wheelchair scooter drone" speed="27.78" length="5.97" shape="9782.06,2899.09 9776.10,2899.44"/>
        <lane id=":11834747407_1_2" index="2" disallow="tram rail_urban rail rail_electric rail_fast ship container cable_car subway aircraft wheelchair scooter drone" speed="27.78" length="5.97" shape="9781.87,2895.89 9775.90,2896.25"/>
    </edge>
    <edge id=":11834747408_0" function="internal">
        <lane id=":11834747408_0_0" index="0" disallow="tram rail_urban rail rail_electric rail_fast ship container cable_car subway aircraft wheelchair scooter drone" speed="27.78" length="5.46" shape="9790.68,2901.78 9785.23,2902.11"/>
        <lane id=":11834747408_0_1" index="1" disallow="tram rail_urban rail rail_electric rail_fast ship container cable_car subway aircraft wheelchair scooter drone" speed="27.78" length="5.46" shape="9790.50,2898.59 9785.04,2898.91"/>
        <lane id=":11834747408_0_2" index="2" disallow="tram rail_urban rail rail_electric rail_fast ship container cable_car subway aircraft wheelchair scooter drone" speed="27.78" length="5.46" shape="9790.31,2895.40 9784.86,2895.72"/>
    </edge>
    <edge id=":11834747408_3" function="internal">
        <lane id=":11834747408_3_0" index="0" allow="tram" speed="13.89" length="12.77" shape="9788.30,2892.33 9788.44,2905.10"/>
    </edge>
    <edge id=":11834747409_0" function="internal">
        <lane id=":11834747409_0_0" index="0" allow="tram" speed="13.89" length="12.84" shape="9778.60,2889.41 9778.39,2876.58"/>
    </edge>
    <edge id=":11834747409_1" function="internal">
        <lane id=":11834747409_1_0" index="0" disallow="pedestrian bicycle tram rail_urban rail rail_electric rail_fast ship container cable_car subway aircraft wheelchair scooter drone" speed="27.78" length="5.44" shape="9782.18,2885.90 9776.76,2886.35"/>
        <lane id=":11834747409_1_1" index="1" disallow="pedestrian bicycle tram rail_urban rail rail_electric rail_fast ship container cable_car subway aircraft wheelchair scooter drone" speed="27.78" length="5.44" shape="9781.91,2882.71 9776.49,2883.16"/>
        <lane id=":11834747409_1_2" index="2" disallow="pedestrian bicycle tram rail_urban rail rail_electric rail_fast ship container cable_car subway aircraft wheelchair scooter drone" speed="27.78" length="5.44" shape="9781.64,2879.52 9776.22,2879.98"/>
    </edge>
    <edge id=":11834747410_0" function="internal">
        <lane id=":11834747410_0_0" index="0" disallow="pedestrian bicycle tram rail_urban rail rail_electric rail_fast ship container cable_car subway aircraft wheelchair scooter drone" speed="27.78" length="5.22" shape="9790.22,2885.22 9785.02,2885.66"/>
        <lane id=":11834747410_0_1" index="1" disallow="pedestrian bicycle tram rail_urban rail rail_electric rail_fast ship container cable_car subway aircraft wheelchair scooter drone" speed="27.78" length="5.22" shape="9789.95,2882.03 9784.75,2882.47"/>
        <lane id=":11834747410_0_2" index="2" disallow="pedestrian bicycle tram rail_urban rail rail_electric rail_fast ship container cable_car subway aircraft wheelchair scooter drone" speed="27.78" length="5.22" shape="9789.68,2878.84 9784.48,2879.28"/>
    </edge>
    <edge id=":11834747410_3" function="internal">
        <lane id=":11834747410_3_0" index="0" allow="tram" speed="13.89" length="12.86" shape="9788.12,2875.75 9788.26,2888.61"/>
    </edge>
    <edge id=":11834747411_0" function="internal">
        <lane id=":11834747411_0_0" index="0" allow="tram" speed="13.89" length="12.70" shape="9778.24,2867.79 9778.04,2855.09"/>
    </edge>
    <edge id=":11834747411_1" function="internal">
        <lane id=":11834747411_1_0" index="0" disallow="pedestrian bicycle tram rail_urban rail rail_electric rail_fast ship container cable_car subway aircraft wheelchair scooter drone" speed="27.78" length="5.27" shape="9775.97,2858.34 9781.23,2858.09"/>
        <lane id=":11834747411_1_1" index="1" disallow="pedestrian bicycle tram rail_urban rail rail_electric rail_fast ship container cable_car subway aircraft wheelchair scooter drone" speed="27.78" length="5.27" shape="9776.12,2861.53 9781.38,2861.29"/>
        <lane id=":11834747411_1_2" index="2" disallow="pedestrian bicycle tram rail_urban rail rail_electric rail_fast ship container cable_car subway aircraft wheelchair scooter drone" speed="27.78" length="5.27" shape="9776.27,2864.73 9781.53,2864.48"/>
    </edge>
    <edge id=":11834747412_0" function="internal">
        <lane id=":11834747412_0_0" index="0" allow="tram" speed="13.89" length="12.72" shape="9787.89,2854.62 9788.03,2867.34"/>
    </edge>
    <edge id=":11834747412_1" function="internal">
        <lane id=":11834747412_1_0" index="0" disallow="pedestrian bicycle tram rail_urban rail rail_electric rail_fast ship container cable_car subway aircraft wheelchair scooter drone" speed="27.78" length="4.91" shape="9784.54,2857.94 9789.44,2857.70"/>
        <lane id=":11834747412_1_1" index="1" disallow="pedestrian bicycle tram rail_urban rail rail_electric rail_fast ship container cable_car subway aircraft wheelchair scooter drone" speed="27.78" length="4.91" shape="9784.69,2861.13 9789.60,2860.90"/>
        <lane id=":11834747412_1_2" index="2" disallow="pedestrian bicycle tram rail_urban rail rail_electric rail_fast ship container cable_car subway aircraft wheelchair scooter drone" speed="27.78" length="4.91" shape="9784.84,2864.33 9789.75,2864.10"/>
    </edge>
    <edge id=":11834747415_0" function="internal">
        <lane id=":11834747415_0_0" index="0" disallow="tram rail_urban rail rail_electric rail_fast ship container cable_car subway aircraft wheelchair scooter drone" speed="27.78" length="7.65" shape="9461.89,2914.23 9459.72,2914.34 9458.27,2914.83 9456.82,2915.41 9454.65,2915.76"/>
        <lane id=":11834747415_0_1" index="1" disallow="tram rail_urban rail rail_electric rail_fast ship container cable_car subway aircraft wheelchair scooter drone" speed="27.78" length="7.65" shape="9462.11,2911.03 9459.83,2911.14 9458.30,2911.63 9456.77,2912.21 9454.49,2912.56"/>
    </edge>
    <edge id=":11834747416_0" function="internal">
        <lane id=":11834747416_0_0" index="0" disallow="tram rail_urban rail rail_electric rail_fast ship container cable_car subway aircraft wheelchair scooter drone" speed="27.78" length="8.04" shape="9438.60,2916.54 9436.33,2916.90 9434.84,2917.55 9433.36,2918.24 9431.10,2918.74"/>