<routes xmlns:xsi="http://www.w3.org/2001/XMLSchema-instance" xsi:noNamespaceSchemaLocation="http://sumo.dlr.de/xsd/routes_file.xsd">
    <vehicle id="t10005.0" depart="0.00" fromTaz="214" toTaz="362">
        <route edges="200001283 200001264 200001262 200001261 200001260 200014472 200001258 200001259 200001286 200001282 200001281 200013448 200001279 200002123 200002132 200013302 200002124 200083261 200080647 200080648 200060649 200060662 200062661 200064849" />
    </vehicle>
    <vehicle id="t10057.0" depart="0.00" fromTaz="214" toTaz="433">
        <route edges="200001283 200001264 200001262 200001261 200001260 200014472 200001258 200001259 200001286 200001282 200001281 200013448 200001279 200002123 200002132 200013302 200002124 200083261 200080647 200080648 200060649 200060662 200062661 200064849 200064848 200061267" />
    </vehicle>
    <vehicle id="t1009.0" depart="0.00" fromTaz="167" toTaz="364">
        <route edges="200053018 200053019 200053020 200053021 200800205 200093169 200093170 200093171 200092428 200093070 200093071 200075134 200075137 200075139 200071258 200071259 200071260 200071261 200071262 200071263 200071264 200061265 200063744 200063745 200063746 200063747 200063748 200063749 200063751 200063752 200063753" />
    </vehicle>
    <vehicle id="t10106.0" depart="0.00" fromTaz="214" toTaz="515">
        <route edges="200001283 200001264 200001262 200001261 200001260 200014472 200001258 200001259 200001286 200001282 200001281 200013448 200001279 200002123 200002132 200013302 200002124 200083261 200080647 200080648 200060649 200060662 200060663 200060659 200062113 200062114 200062115 200062116 200062117 200062118 200062119 200062120 200062121 200062122 200062123 200062124 200062127 200062128 200062129 200062130 200062131 200062132 200061415 200061416 200071417 200071418 200071419 200071420 200071421 200071422 200071423 200071424 200071425 200071426 200071251 200071252 200071253 200071254 200071255 200075116 200002480 200007005 200007004 200002476 200071208 200071244 200071245 200002518 200002519 200002562 200002323 200800201 200002295 200002623 200002296 200002297 200002299 200035108" />
    </vehicle>
    <vehicle id="t10115.0" depart="0.00" fromTaz="214" toTaz="531">
        <route edges="200001341 200001340 200001355 200001360 200001376 200001383 200001417 200001485 200001490 200001500 200001513 200001516 200001519 200014204 200014221 200021654 200022040 200022041 200022042" />
    </vehicle>
    <vehicle id="t10133.0" depart="0.00" fromTaz="214" toTaz="614">
        <route edges="200001283 200001264 200001262 200001261 200001260 200014472 200001258 200001259 200001286 200001282 200001281 200013448 200001279 200002123 200002132 200013302 200002124 200083261 200080647 200080648 200060649 200060662 200060663 200060664 200001765 200001637 200001742 200001743 200001746 200001741 200001759 200001613 200001649 200001652 200001616 200001623 200013429 200001620 200001738 200001739 200001740 200001735 200002748 200002749 200002745 200002747 200002746 200002645 200002646 200002671 200002647 200002648 200002649 200002650" />
    </vehicle>
    <vehicle id="t10146.0" depart="0.00" fromTaz="214" toTaz="673">
        <route edges="200001283 200001264 200001262 200001261 200001260 200014472 200001258 200001259 200001286 200001282 200001281 200013448 200001279 200002123 200002132 200013302 200002124 200083261 200080647 200080648 200060649 200060662 200060663 200001678 200001680 200001681 200000018 200000017 200001683 200001710 200001711 200001712 200001713 200001684 200001719 200001686 200001687 200001720 200001721 200001688 200001718 200001722 200001588 200001791 200001589 200001724 200007028 200001528 200020476 200020477 200021947" />
    </vehicle>
    <vehicle id="t10221.0" depart="0.00" fromTaz="215" toTaz="268">
        <route edges="200014250 200014254 200001380 200001401 200001524 200001408 200001410 200001416 200001427 200001433 200001437 200001452 200001457 200062111 200062113 200062114 200062115 200062116 200062117 200062118 200062119 200062120 200062121 200062122 200062123 200062124 200062127 200062128 200062129 200062130 200062131 200062132 200061415 200061416 200071417 200071418 200071419 200071420 200071421 200071422 200071423 200071424 200071425 200071426 200075131 200075129 200075130 200093105 200093106 200093107 200094908 200091184" />
    </vehicle>
    <vehicle id="t1023.0" depart="0.00" fromTaz="167" toTaz="378">
        <route edges="200053018 200053019 200053020 200053021 200800205 200093169 200093170 200093171 200092428 200093070 200093071 200075136 200075138 200075141 200071251 200071252 200071253 200071254 200071255 200075116 200002480 200007005 200007003 200002484 200014503 200014522 200014504" />
    </vehicle>
    <vehicle id="t10245.0" depart="0.00" fromTaz="215" toTaz="302">
        <route edges="200014250 200014254 200001380 200001401 200001524 200001408 200001410 200001416 200001427 200001433 200001437 200001452 200001457 200062111 200062113 200062114 200062115 200062116 200062117 200062118 200062119 200062120 200062121 200062122 200062123 200062124 200062127 200062128 200062129 200062130 200062131 200062132 200061415 200061416 200071417 200071418 200071419 200071420 200071421 200071422 200071423 200071424 200071425 200071426 200075131 200075129 200075130 200093105" />
    </vehicle>
    <vehicle id="t10254.0" depart="0.00" fromTaz="215" toTaz="317">
        <route edges="200001288 200001294 200001341 200001340 200001338 200001353 200001367 200001373 200001379" />
    </vehicle>
    <vehicle id="t10269.0" depart="0.00" fromTaz="215" toTaz="333">
        <route edges="200014250 200014254 200001380 200001401 200001524 200001408 200001410 200001416 200001427 200001433 200001437 200001452 200001457 200062111 200062113 200062114 200062115 200062116 200062117 200062118 200062119 200062120 200062121 200062122 200062123 200062124 200062127 200062128 200062129 200062130 200062131 200062132 200062092" />
    </vehicle>
    <vehicle id="t10282.0" depart="0.00" fromTaz="215" toTaz="355">
        <route edges="200014250 200014253 200014256 200014257" />
    </vehicle>
    <vehicle id="t10310.0" depart="0.00" fromTaz="215" toTaz="394">
        <route edges="200014250 200014254 200001380 200001401 200001524 200001408 200001410 200001416 200001427 200001433 200001437 200001452 200001457 200062111 200060662 200060663 200001678 200001680 200001681 200000018 200000017 200001683 200001710 200001711 200001712 200001713 200001556 200015022 200015024" />
    </vehicle>
    <vehicle id="t10321.0" depart="0.00" fromTaz="215" toTaz="406">
        <route edges="200014250 200014254 200001380 200001401 200001524 200001408 200001410 200001416 200001427 200001433 200001437 200001452 200001457 200062111 200062113 200062114 200062115 200062116 200062117 200062118 200062119 200062120 200062121 200062122 200062123 200062124 200062127 200062128 200062129 200062130 200062131 200062132 200061415 200061416 200071417 200071418 200071419 200071420 200071421 200071422 200071423 200071424 200071425 200071426 200071249 200071250 200071375" />
    </vehicle>
    <vehicle id="t10370.0" depart="0.00" fromTaz="215" toTaz="493">
        <route edges="200001288 200001294 200001341 200001340 200001355 200001360 200001376 200001383 200001417 200001485 200001490 200001500 200001513 200001516 200001519 200014204 200014232 200014230 200014231 200014206 200014217" />
    </vehicle>
    <vehicle id="t10393.0" depart="0.00" fromTaz="215" toTaz="519">
        <route edges="200014250 200014254 200001380 200001401 200001524 200001408 200001410 200001416 200001427 200001433 200001437 200001452 200001457 200062111 200062113 200062114 200062115 200062116 200062117 200062118 200062119 200062120 200062121 200062122 200062123 200062124 200062127 200062128 200062129 200062130 200062131 200062132 200061415 200061416 200071417 200071418 200071419 200071420 200071421 200071422 200071423 200071424 200071425 200071426 200071251 200071252 200071253 200071254 200071255 200075116 200002480 200007005 200007004 200002476 200071208 200071244 200071245 200002518 200002519 200002562 200002323 200800201 200002295 200002623 200002296 200002297 200002299 200035108 200034626 200034625 200034624" />
    </vehicle>
    <vehicle id="t10398.0" depart="0.00" fromTaz="215" toTaz="531">
        <route edges="200014250 200014253 200014256 200014257 200014275 200014261 200025126" />
    </vehicle>
    <vehicle id="t10410.0" depart="0.00" fromTaz="215" toTaz="604">
        <route edges="200014250 200014254 200001380 200001401 200001524 200001408 200001410 200001416 200001427 200001433 200001437 200001452 200001457 200062111 200060662 200060663 200001678 200001680 200001681 200000018 200000017 200001683 200001710 200001711 200001712 200001713 200001684 200001719 200001686 200001687 200001720 200001721 200001688 200001718 200001722 200001588 200001791 200001589 200001724 200007028 200001528 200020476 200020477" />
    </vehicle>
    <vehicle id="t10453.0" depart="0.00" fromTaz="216" toTaz="188">
        <route edges="200014472 200001258 200001259 200001286 200001282 200001281 200013448 200001269 200002108 200002103 200002095 200002087 200002083 200002077 200002078 200012053 200001938 200001943 200001944 200001882 200001925 200084974 200084978 200084979 200084975 200002209 200001958 200001959 200001948 200002081 200002202 200002082" />
    </vehicle>
    <vehicle id="t10482.0" depart="0.00" fromTaz="216" toTaz="227">
        <route edges="200014472 200001258 200001259 200001286 200001282 200001281 200013448 200001269 200002108 200002103 200002095 200002087 200002083 200002077 200002078 200012053 200001941 200001942 200001930 200001934 200002194 200001120 200001123 200001134 200001138 200001139" />
    </vehicle>
    <vehicle id="t10483.0" depart="0.00" fromTaz="216" toTaz="228">
        <route edges="200014472 200001258 200001259 200001286 200001282 200001281 200013448 200001269 200002108 200002103 200002095 200002087 200002083 200002077 200002078 200012053 200001941 200001942 200001930 200001934 200002194 200001120 200001123 200001134 200001138 200001139 200001140 200001141 200000782 200000631" />
    </vehicle>
    <vehicle id="t10485.0" depart="0.00" fromTaz="216" toTaz="230">
        <route edges="200014472 200001258 200001259 200001286 200001282 200001281 200013448 200001269 200002108 200002103 200002095 200002087 200002083 200002077 200002078 200012053 200001941 200001942 200001930 200001934 200002194 200001120 200001123 200001134 200001138 200001139 200001140 200001141 200000782 200000631 200000630 200000629 200000627 200000628 200000006 200000626 200000625 200000623 200000622" />
    </vehicle>
    <vehicle id="t10492.0" depart="0.00" fromTaz="216" toTaz="237">
        <route edges="200014472 200001258 200001259 200001286 200001282 200001281 200013448 200001279 200002123 200002132 200013302 200002124 200083261 200080647 200080648 200060649 200060662 200060663 200060659 200062113 200062114 200062115 200062116 200062117 200062118 200062119 200062120 200062121 200062122 200062123 200062124 200062127 200062128 200062129 200062130 200062131 200062132 200061415 200061416 200071417 200071418 200071419 200071420 200071421 200071422 200071423 200071424 200071425 200071426 200071251 200071252 200071253 200071201 200073098 200070722 200090723 200090724 200090725 200090726 200002605 200007009 200002607 200002609 200002610 200002611" />
    </vehicle>
    <vehicle id="t10496.0" depart="0.00" fromTaz="216" toTaz="248">
        <route edges="200001272 200001271 200001267 200001274 200001288 200001294 200001341 200001340 200001355" />
    </vehicle>
    <vehicle id="t10504.0" depart="0.00" fromTaz="216" toTaz="263">
        <route edges="200014472 200001258 200001259 200001286 200001282 200001281 200013448 200001269 200002108 200002103 200002095 200002087 200002083 200002077 200002078 200012053 200001941 200001942 200001930 200001934 200002194 200001120 200001123 200001134 200001138 200001139 200001140 200001141 200000782 200000631 200000630 200000629 200000657 200000658" />
    </vehicle>
    <vehicle id="t10505.0" depart="0.00" fromTaz="216" toTaz="264">
        <route edges="200014472 200001258 200001259 200001286 200001282 200001281 200013448 200001269 200002108 200002103 200002095 200002087 200002083 200002077 200002078 200012053 200001941 200001942 200001930 200001934 200002194 200001120 200001123 200001134 200001138 200001139 200001140 200001141 200000782 200000631 200000630 200000629 200000657 200000658 200082253 200084344 200094343" />
    </vehicle>
    <vehicle id="t10506.0" depart="0.00" fromTaz="216" toTaz="266">
        <route edges="200014472 200001258 200001259 200001286 200001282 200001281 200013448 200001269 200002108 200002103 200002095 200002087 200002083 200002077 200002078 200012053 200001941 200001942 200001930 200001934 200002194 200001120 200001123 200001134 200001138 200001139 200001140 200001141 200000782 200000631 200000630 200000629 200000627 200000628 200000006 200000626 200000625 200000623 200000622 200000619 200000932 200000930 200000928 200000947" />
    </vehicle>
    <vehicle id="t10514.0" depart="0.00" fromTaz="216" toTaz="274">
        <route edges="200014472 200001258 200001259 200001286 200001282 200001281 200013448 200001279 200002123 200002132 200013302 200002124 200083261 200080647 200080648 200060649 200060662 200060663 200060659 200062113 200062114 200062115 200062116 200062117 200062118 200062119 200062120 200062121 200062122 200062123 200062124 200062127 200062128 200062129 200062130 200062131 200062132 200061415 200061416 200071417 200071418 200071419 200071420 200071421 200071422 200071423 200071424 200071425 200071426 200071251 200071252 200071253 200071201 200073098 200070722 200800202 200002502 200002402 200002408 200002410 200002416 200002417 200002282 200002283 200014525 200014526" />
    </vehicle>
    <vehicle id="t1058.0" depart="0.00" fromTaz="167" toTaz="432">
        <route edges="200053018 200053019 200053020 200053021 200800205 200093169 200093170 200093171 200092428 200093070 200093071 200075134 200075137 200075139 200071258 200071259 200071260 200071261 200071262 200071263 200071264 200061265 200063744 200063745 200063746 200063747 200063748 200063749 200063751 200063752 200063753 200063754 200061266 200061267 200064293" />
    </vehicle>
    <vehicle id="t10595.0" depart="0.00" fromTaz="216" toTaz="387">
        <route edges="200001272 200001271 200001267 200001274 200001288 200001294 200001341 200001340 200001355 200001360 200001376 200001383 200001417 200001485 200001490 200001500 200001513 200001516 200001519 200014204" />
    </vehicle>
    <vehicle id="t10607.0" depart="0.00" fromTaz="216" toTaz="402">
        <route edges="200014472 200001258 200001259 200001286 200001282 200001281 200013448 200001279 200002123 200002132 200013302 200002124 200083261 200080647 200080648 200060649 200060662 200060663 200060659 200062113 200062114 200062115 200062116 200062117 200062118 200062119 200062120 200062121 200062122 200062123 200062124 200061409 200064845" />
    </vehicle>
    <vehicle id="t10614.0" depart="0.00" fromTaz="216" toTaz="409">
        <route edges="200014472 200001258 200001259 200001286 200001282 200001281 200013448 200001279 200002123 200002132 200013302 200002124 200083261 200080647 200080648 200060649 200060662 200060663 200060659 200062113 200062114 200062115 200062116 200062117 200062118 200062119 200062120 200062121 200062122 200062123 200062124 200062127 200062128 200062129 200062130 200062131 200062132 200061415 200061416 200071417 200071418 200071419 200071420 200071421 200071422 200071423 200071424 200071425 200071426 200071249 200074314 200074313 200071247" />
    </vehicle>
    <vehicle id="t1062.0" depart="0.00" fromTaz="167" toTaz="441">
        <route edges="200053018 200053019 200053020 200053021 200800205 200093169 200093170 200093171 200092428 200093070 200093071 200075134 200075137 200075139 200071249 200071250 200071322 200071353" />
    </vehicle>
    <vehicle id="t10652.0" depart="0.00" fromTaz="216" toTaz="476">
        <route edges="200014472 200001258 200001259 200001286 200001282 200001281 200013448 200001279 200002123 200002132 200013302 200002124 200083261 200080647 200080648 200060649 200060662 200060663 200060659 200062113 200062114 200062115 200062116 200062117 200062118 200062119 200062120 200062121 200062122 200062123 200062124 200062127 200062128 200062129 200062130 200062131 200062132 200061415 200061416 200071417 200071418 200071419 200071420 200071421 200071422 200071423 200071424 200071425 200071426 200071249 200071250 200071322 200071353" />
    </vehicle>
    <vehicle id="t10739.0" depart="0.00" fromTaz="217" toTaz="182">
        <route edges="200014459" />
    </vehicle>
    <vehicle id="t10744.0" depart="0.00" fromTaz="217" toTaz="187">
        <route edges="200001286 200001282 200001281 200013448 200001269 200002108 200002103 200002095 200002087 200002083 200002077 200002078 200012053 200001938 200001943 200001944 200001882 200001925 200084974 200084978 200084979 200084975 200002209 200001958 200001959 200001948 200002068 200002071 200002197 200002072 200002093" />
    </vehicle>
    <vehicle id="t10775.0" depart="0.00" fromTaz="217" toTaz="228">
        <route edges="200001286 200001282 200001281 200013448 200001269 200002108 200002103 200002095 200002087 200002083 200002077 200002078 200012053 200001941 200001942 200001930 200001934 200002194 200001120 200001123 200001134 200001138 200001139 200001140 200001141 200000782 200000631" />
    </vehicle>
    <vehicle id="t10802.0" depart="0.00" fromTaz="217" toTaz="269">
        <route edges="200001286 200001282 200001281 200013448 200001279 200002123 200002132 200013302 200002124 200083261 200080647 200080648 200060649 200060662 200060663 200060659 200062113 200062114 200062115 200062116 200062117 200062118 200062119 200062120 200062121 200062122 200062123 200062124 200062127 200062128 200062129 200062130 200062131 200062132 200061415 200061416 200071417 200071418 200071419 200071420 200071421 200071422 200071423 200071424 200071425 200071426 200071251 200071252 200071253 200071201 200073098 200070722 200090723 200090724 200090725" />
    </vehicle>
    <vehicle id="t10837.0" depart="0.00" fromTaz="217" toTaz="319">
        <route edges="200001286 200001282 200001281 200013448 200001279 200002123 200002132 200013302 200002124 200083261 200080647 200080648 200060649 200001465 200001463 200001442 200001441 200001439 200001436 200001424 200001397 200001395 200001392 200001387 200001431 200001443" />
    </vehicle>
    <vehicle id="t10842.0" depart="0.00" fromTaz="217" toTaz="324">
        <route edges="200001286 200001282 200001281 200013448 200001279 200002123 200002132 200013302 200002124 200083261 200080647 200080648 200060649 200001465 200001463 200001442" />
    </vehicle>
    <vehicle id="t10845.0" depart="0.00" fromTaz="217" toTaz="327">
        <route edges="200001286 200001282 200001281 200013448 200001279 200002123 200002132 200013302 200002124 200083261 200080647 200080648 200060649 200060662 200060663 200060659 200062113 200062114 200062115" />
    </vehicle>
    <vehicle id="t10874.0" depart="0.00" fromTaz="217" toTaz="365">
        <route edges="200001286 200001282 200001281 200013448 200001279 200002123 200002132 200013302 200002124 200083261 200080647 200080648 200060649 200060662 200060663 200060659 200062113 200062114 200062115 200062116 200062117 200062118 200062119 200062120 200062121 200062122" />
    </vehicle>
    <vehicle id="t10925.0" depart="0.00" fromTaz="217" toTaz="440">
        <route edges="200001286 200001282 200001281 200013448 200001279 200002123 200002132 200013302 200002124 200083261 200080647 200080648 200060649 200060662 200060663 200060659 200062113 200062114 200062115 200062116 200062117 200062118 200062119 200062120 200062121 200062122 200062123 200062124 200062127 200062128 200062129 200062130 200062131 200062132 200061368 200061369 200061370 200064842 200064964 200064965 200064966 200074841" />
    </vehicle>
    <vehicle id="t10943.0" depart="0.00" fromTaz="217" toTaz="470">
        <route edges="200001286 200001282 200001281 200013448 200001279 200002123 200002132 200013302 200002124 200083261 200080647 200080648 200060649 200060662 200060663 200060659 200062113 200062114 200062115 200062116 200062117 200062118 200062119 200062120 200062121 200062122 200062123 200062124 200062127 200062128 200062129 200062130 200062131 200062132 200063744 200063745 200063746 200061286 200064019 200061324 200063132 200000275" />
    </vehicle>
    <vehicle id="t1095.0" depart="0.00" fromTaz="167" toTaz="500">
        <route edges="200053018 200053019 200053020 200053021 200800205 200093169 200093170 200093171 200092428 200093070 200093071 200075134 200075137 200075139 200071258 200071259 200071260 200071261 200071262 200071263 200071264 200061265 200063744 200063745 200063746 200063747 200063748 200063749 200063751 200063752 200063753 200063754 200061266 200061267 200061268 200001783 200013429 200001620 200001797" />
    </vehicle>
    <vehicle id="t10959.0" depart="0.00" fromTaz="217" toTaz="500">
        <route edges="200001286 200001282 200001281 200013448 200001279 200002123 200002132 200013302 200002124 200083261 200080647 200080648 200060649 200060662 200060663 200060664 200001765 200001637 200001742 200001743 200001746 200001741 200001759 200001613 200001649 200001657 200001610 200001698" />
    </vehicle>
    <vehicle id="t10973.0" depart="0.00" fromTaz="217" toTaz="516">
        <route edges="200001286 200001282 200001281 200013448 200001279 200002123 200002132 200013302 200002124 200083261 200080647 200080648 200060649 200060662 200060663 200060659 200062113 200062114 200062115 200062116 200062117 200062118 200062119 200062120 200062121 200062122 200062123 200062124 200062127 200062128 200062129 200062130 200062131 200062132 200061415 200061416 200071417 200071418 200071419 200071420 200071421 200071422 200071423 200071424 200071425 200071426 200071251 200071252 200071253 200071254 200071255 200075116 200002480 200007005 200007004 200002476 200071208 200071244 200071245 200002518 200002519 200002562 200002323 200800201 200002295 200002623 200002296 200002297 200002299 200035108 200034626" />
    </vehicle>
    <vehicle id="t11001.0" depart="0.00" fromTaz="217" toTaz="616">
        <route edges="200001286 200001282 200001281 200013448 200001279 200002123 200002132 200013302 200002124 200083261 200080647 200080648 200060649 200060662 200060663 200060664 200001765 200001637 200001742 200001743 200001746 200001741 200001759 200001613 200001649 200001652 200001616 200001623 200013429 200001620 200001738 200001739 200001740 200001735 200002748 200002749 200002745 200002747 200002746 200002645 200002646 200002671 200002647 200002648 200002649 200002650 200002651 200002652 200002709" />
    </vehicle>
    <vehicle id="t11017.0" depart="0.00" fromTaz="217" toTaz="707">
        <route edges="200001286 200001282 200001281 200013448 200001279 200002123 200002132 200013302 200002124 200083261 200080647 200080648 200060649 200060662 200060663 200001678 200001680 200001681 200000018 200000017 200001683 200001710 200001711 200001712 200001713 200001684 200001719 200001686 200001687 200001720 200001721 200001688 200001718 200001722 200001588 200001791 200001589 200001724 200007028 200001528 200020476 200020477 200021947" />
    </vehicle>
    <vehicle id="t11020.0" depart="0.00" fromTaz="217" toTaz="754">
        <route edges="200001286 200001282 200001281 200013448 200001279 200002123 200002132 200013302 200002124 200083261 200080647 200080648 200060649 200060662 200060663 200060664 200001765 200001637 200001742 200001743 200001746 200001741 200001759 200001613 200001649 200001652 200001616 200001623 200013429 200001620 200001738 200001739 200001740 200001735 200002748 200002749 200002745 200002747 200002746 200002645 200002646 200002671 200002647 200002648 200002649 200013426 200002678 200002679 200002701" />
    </vehicle>
    <vehicle id="t11060.0" depart="0.00" fromTaz="218" toTaz="222">
        <route edges="200001286 200001282 200001281 200013448 200001269 200002108 200002103 200002095" />
    </vehicle>
    <vehicle id="t11061.0" depart="0.00" fromTaz="218" toTaz="223">
        <route edges="200001286 200001282 200001281 200013448 200001269 200002108 200002103 200002095 200002087" />
    </vehicle>
    <vehicle id="t11079.0" depart="0.00" fromTaz="218" toTaz="247">
        <route edges="200001297 200001277 200001276 200001272 200001271 200001267 200001274 200001288 200001294 200001341 200001340 200001355" />
    </vehicle>
    <vehicle id="t11166.0" depart="0.00" fromTaz="218" toTaz="366">
        <route edges="200001286 200001282 200001281 200013448 200001279 200002123 200002132 200013302 200002124 200083261 200080647 200080648 200060649 200060662 200060663 200060659 200062113 200062114 200062115 200062116 200062117 200062118 200062119 200062120 200062121 200062122 200062123 200062124 200062127" />
    </vehicle>
    <vehicle id="t11173.0" depart="0.00" fromTaz="218" toTaz="373">
        <route edges="200001286 200001282 200001281 200013448 200001279 200002123 200002132 200013302 200002124 200083261 200080647 200080648 200060649 200060662 200060663 200060659 200062113 200062114 200062115 200062116 200062117 200062118 200062119 200062120 200062121 200062122 200062123 200062124 200062127 200062128 200062129 200062130 200062131 200062132 200061415 200061416 200071417 200071418 200071419 200071420 200071421 200071422 200071423 200071424 200071425 200071426 200071249" />
    </vehicle>
    <vehicle id="t11177.0" depart="0.00" fromTaz="218" toTaz="377">
        <route edges="200001286 200001282 200001281 200013448 200001279 200002123 200002132 200013302 200002124 200083261 200080647 200080648 200060649 200060662 200060663 200060659 200062113 200062114 200062115 200062116 200062117 200062118 200062119 200062120 200062121 200062122 200062123 200062124 200062127 200062128 200062129 200062130 200062131 200062132 200061415 200061416 200071417 200071418 200071419 200071420 200071421 200071422 200071423 200071424 200071425 200071426 200071251 200071252 200071253 200071254 200071255 200075116 200002480 200007005 200007003 200002484 200014503 200014522" />
    </vehicle>
    <vehicle id="t11202.0" depart="0.00" fromTaz="218" toTaz="413">
        <route edges="200001286 200001282 200001281 200013448 200001279 200002123 200002132 200013302 200002124 200083261 200080647 200080648 200060649 200060662 200060663 200060659 200062113 200062114 200062115 200062116 200062117 200062118 200062119 200062120 200062121 200062122 200062123 200062124 200062127 200062128 200062129 200062130 200062131 200062132 200061415 200061416 200071417 200071418 200071419 200071420 200071421 200071422 200071423 200071424 200071425 200071426 200071251 200071252 200071253 200071254 200071255 200075116 200002480 200007005 200007004 200002476 200071208 200071244 200071245 200002518 200002617 200002618 200014500" />
    </vehicle>
    <vehicle id="t11221.0" depart="0.00" fromTaz="218" toTaz="445">
        <route edges="200001286 200001282 200001281 200013448 200001279 200002123 200002132 200013302 200002124 200083261 200080647 200080648 200060649 200060662 200060663 200060659 200062113 200062114 200062115 200062116 200062117 200062118 200062119 200062120 200062121 200062122 200062123 200062124 200062127 200062128 200062129 200062130 200062131 200062132 200061415 200061416 200071417 200071418 200071419 200071420 200071421 200071422 200071423 200071424 200071425 200071426 200071251 200071252 200071253 200071254 200071255 200075116 200002480 200007005 200007004 200002476 200071208 200071244 200071245 200002518 200002519 200002562 200002323" />
    </vehicle>
    <vehicle id="t11266.0" depart="0.00" fromTaz="218" toTaz="518">
        <route edges="200001286 200001282 200001281 200013448 200001279 200002123 200002132 200013302 200002124 200083261 200080647 200080648 200060649 200060662 200060663 200060659 200062113 200062114 200062115 200062116 200062117 200062118 200062119 200062120 200062121 200062122 200062123 200062124 200062127 200062128 200062129 200062130 200062131 200062132 200061415 200061416 200071417 200071418 200071419 200071420 200071421 200071422 200071423 200071424 200071425 200071426 200071251 200071252 200071253 200071254 200071255 200075116 200002480 200007005 200007004 200002476 200071208 200071244 200071245 200002518 200002519 200002562 200002323 200800201 200002295 200002623 200002296 200002297 200002299 200035108 200034626 200034625" />
    </vehicle>
    <vehicle id="t11287.0" depart="0.00" fromTaz="218" toTaz="611">
        <route edges="200001286 200001282 200001281 200013448 200001279 200002123 200002132 200013302 200002124 200083261 200080647 200080648 200060649 200060662 200060663 200060664 200001765 200001637 200001742 200001743 200001746 200001741 200001759 200001613 200001649 200001652 200001616 200001623 200013429 200001620 200001738 200001739 200001740 200001735 200002748 200002749 200002745 200002747 200002746 200002645 200002646" />
    </vehicle>
    <vehicle id="t1133.0" depart="0.00" fromTaz="167" toTaz="612">
        <route edges="200053018 200053019 200053020 200053021 200800205 200093169 200093170 200093171 200092428 200093070 200093071 200075134 200075137 200075139 200071258 200071259 200071260 200071261 200071262 200071263 200071264 200061265 200063744 200063745 200063746 200063747 200063748 200063749 200063751 200063752 200063753 200063754 200061266 200061267 200061268 200001783 200013429 200001620 200001738 200001739 200001740 200001735 200002748 200002749 200002745 200002747 200002746 200002645 200002646 200002671 200002647 200002648" />
    </vehicle>
    <vehicle id="t11346.0" depart="0.00" fromTaz="219" toTaz="214">
        <route edges="200001297 200001277 200001276 200001272 200001271 200001267 200001274 200001288" />
    </vehicle>