<?xml version='1.0' encoding='utf-8'?>
<routes xmlns:xsi="http://www.w3.org/2001/XMLSchema-instance" xsi:noNamespaceSchemaLocation="http://sumo.dlr.de/xsd/routes_file.xsd">
    <vType id="t10093.0_rain" accel="1.0" decel="4.0" maxSpeed="20" minGap="3.0" /><vehicle id="t10093.0" depart="0.00" fromTaz="214" toTaz="500" type="t10093.0_rain">
        <route edges="200001283 200001264 200001262 200001261 200001260 200014472 200001258 200001259 200001286 200001282 200001281 200013448 200001279 200002123 200002132 200013302 200002124 200083261 200080647 200080648 200060649 200060662 200060663 200060664 200001765 200001637 200001742 200001743 200001746 200001741 200001759 200001613 200001649 200001657 200001610 200001698" />
    </vehicle>
    <vType id="t10108.0_rain" accel="1.0" decel="4.0" maxSpeed="20" minGap="3.0" /><vehicle id="t10108.0" depart="0.00" fromTaz="214" toTaz="517" type="t10108.0_rain">
        <route edges="200001283 200001264 200001262 200001261 200001260 200014472 200001258 200001259 200001286 200001282 200001281 200013448 200001279 200002123 200002132 200013302 200002124 200083261 200080647 200080648 200060649 200060662 200060663 200060659 200062113 200062114 200062115 200062116 200062117 200062118 200062119 200062120 200062121 200062122 200062123 200062124 200062127 200062128 200062129 200062130 200062131 200062132 200061415 200061416 200071417 200071418 200071419 200071420 200071421 200071422 200071423 200071424 200071425 200071426 200071251 200071252 200071253 200071254 200071255 200075116 200002480 200007005 200007004 200002476 200071208 200071244 200071245 200002518 200002519 200002562 200002323 200800201 200002295 200002623 200002296 200002297 200002299 200035108 200034626" />
    </vehicle>
    <vType id="t10130.0_rain" accel="1.0" decel="4.0" maxSpeed="20" minGap="3.0" /><vehicle id="t10130.0" depart="0.00" fromTaz="214" toTaz="611" type="t10130.0_rain">
        <route edges="200001283 200001264 200001262 200001261 200001260 200014472 200001258 200001259 200001286 200001282 200001281 200013448 200001279 200002123 200002132 200013302 200002124 200083261 200080647 200080648 200060649 200060662 200060663 200060664 200001765 200001637 200001742 200001743 200001746 200001741 200001759 200001613 200001649 200001652 200001616 200001623 200013429 200001620 200001738 200001739 200001740 200001735 200002748 200002749 200002745 200002747 200002746 200002645 200002646" />
    </vehicle>
    <vType id="t10166.0_rain" accel="1.0" decel="4.0" maxSpeed="20" minGap="3.0" /><vehicle id="t10166.0" depart="0.00" fromTaz="215" toTaz="185" type="t10166.0_rain">
        <route edges="200014443 200014426 200014427 200014431 200014434 200001226 200001227 200001224 200001225" />
    </vehicle>
    <vType id="t10225.0_rain" accel="1.0" decel="4.0" maxSpeed="20" minGap="3.0" /><vehicle id="t10225.0" depart="0.00" fromTaz="215" toTaz="272" type="t10225.0_rain">
        <route edges="200014250 200014254 200001380 200001401 200001524 200001408 200001410 200001416 200001427 200001433 200001437 200001452 200001457 200062111 200062113 200062114 200062115 200062116 200062117 200062118 200062119 200062120 200062121 200062122 200062123 200062124 200062127 200062128 200062129 200062130 200062131 200062132 200061415 200061416 200071417 200071418 200071419 200071420 200071421 200071422 200071423 200071424 200071425 200071426 200071251 200071252 200071253 200071201 200073098 200070722 200800202 200002502 200002402 200002408 200002410 200002416 200002417" />
    </vehicle>
    <vType id="t10347.0_rain" accel="1.0" decel="4.0" maxSpeed="20" minGap="3.0" /><vehicle id="t10347.0" depart="0.00" fromTaz="215" toTaz="445" type="t10347.0_rain">
        <route edges="200014250 200014254 200001380 200001401 200001524 200001408 200001410 200001416 200001427 200001433 200001437 200001452 200001457 200062111 200062113 200062114 200062115 200062116 200062117 200062118 200062119 200062120 200062121 200062122 200062123 200062124 200062127 200062128 200062129 200062130 200062131 200062132 200061415 200061416 200071417 200071418 200071419 200071420 200071421 200071422 200071423 200071424 200071425 200071426 200071251 200071252 200071253 200071254 200071255 200075116 200002480 200007005 200007004 200002476 200071208 200071244 200071245 200002518 200002519 200002562 200002323" />
    </vehicle>
    <vType id="t1035.0_rain" accel="1.0" decel="4.0" maxSpeed="20" minGap="3.0" /><vehicle id="t1035.0" depart="0.00" fromTaz="167" toTaz="401" type="t1035.0_rain">
        <route edges="200053018 200053019 200053020 200053021 200800205 200093169 200093170 200093171 200092428 200093070 200093071 200075134 200075137 200075139 200071258 200071259 200071260 200071261 200071262 200071263 200071264 200061265 200063744 200063745 200063746 200063747 200063748 200063749 200061409" />
    </vehicle>
    <vType id="t10362.0_rain" accel="1.0" decel="4.0" maxSpeed="20" minGap="3.0" /><vehicle id="t10362.0" depart="0.00" fromTaz="215" toTaz="476" type="t10362.0_rain">
        <route edges="200014250 200014254 200001380 200001401 200001524 200001408 200001410 200001416 200001427 200001433 200001437 200001452 200001457 200062111 200062113 200062114 200062115 200062116 200062117 200062118 200062119 200062120 200062121 200062122 200062123 200062124 200062127 200062128 200062129 200062130 200062131 200062132 200061415 200061416 200071417 200071418 200071419 200071420 200071421 200071422 200071423 200071424 200071425 200071426 200071249 200071250 200071322 200071353" />
    </vehicle>
    <vType id="t10460.0_rain" accel="1.0" decel="4.0" maxSpeed="20" minGap="3.0" /><vehicle id="t10460.0" depart="0.00" fromTaz="216" toTaz="197" type="t10460.0_rain">
        <route edges="200014472 200001258 200001259 200001286 200001282 200001281 200013448 200001269 200002108 200002103 200002095 200002087 200002083 200002077 200002078 200012053 200001941 200001942 200001930 200001934 200002194 200001120 200001123 200001134 200001138 200001139 200001140 200001141 200000782 200000631 200000630 200000629 200000627 200000628 200000006 200000626 200000625 200000623 200000620 200001106 200001085 200001051 200001055 200001060 200001061 200001070" />
    </vehicle>
    <vType id="t10468.0_rain" accel="1.0" decel="4.0" maxSpeed="20" minGap="3.0" /><vehicle id="t10468.0" depart="0.00" fromTaz="216" toTaz="212" type="t10468.0_rain">
        <route edges="200001272 200001271 200001267 200001274 200001288 200001294 200001298 200001336 200001335" />
    </vehicle>
    <vType id="t10469.0_rain" accel="1.0" decel="4.0" maxSpeed="20" minGap="3.0" /><vehicle id="t10469.0" depart="0.00" fromTaz="216" toTaz="213" type="t10469.0_rain">
        <route edges="200001272 200001271 200001267 200001274 200001288 200001294 200001298 200001336" />
    </vehicle>
    <vType id="t10520.0_rain" accel="1.0" decel="4.0" maxSpeed="20" minGap="3.0" /><vehicle id="t10520.0" depart="0.00" fromTaz="216" toTaz="287" type="t10520.0_rain">
        <route edges="200014470 200014466 200014451 200014441 200014419 200014444 200014250 200014254 200001380" />
    </vehicle>
    <vType id="t10555.0_rain" accel="1.0" decel="4.0" maxSpeed="20" minGap="3.0" /><vehicle id="t10555.0" depart="0.00" fromTaz="216" toTaz="331" type="t10555.0_rain">
        <route edges="200014472 200001258 200001259 200001286 200001282 200001281 200013448 200001279 200002123 200002132 200013302 200002124 200083261 200080647 200080648 200060649 200060662 200060663 200060659 200062113 200062114 200062115 200062116 200062117 200062118 200062119 200062120 200062121 200061290 200061273 200063520 200082263" />
    </vehicle>
    <vType id="t10578.0_rain" accel="1.0" decel="4.0" maxSpeed="20" minGap="3.0" /><vehicle id="t10578.0" depart="0.00" fromTaz="216" toTaz="362" type="t10578.0_rain">
        <route edges="200014472 200001258 200001259 200001286 200001282 200001281 200013448 200001279 200002123 200002132 200013302 200002124 200083261 200080647 200080648 200060649 200060662 200062661 200064849" />
    </vehicle>
    <vType id="t10598.0_rain" accel="1.0" decel="4.0" maxSpeed="20" minGap="3.0" /><vehicle id="t10598.0" depart="0.00" fromTaz="216" toTaz="391" type="t10598.0_rain">
        <route edges="200014470 200014466 200014451 200014441 200014419 200014444 200014250 200014253 200014256 200014257 200014275 200014261" />
    </vehicle>
    <vType id="t10608.0_rain" accel="1.0" decel="4.0" maxSpeed="20" minGap="3.0" /><vehicle id="t10608.0" depart="0.00" fromTaz="216" toTaz="403" type="t10608.0_rain">
        <route edges="200014472 200001258 200001259 200001286 200001282 200001281 200013448 200001279 200002123 200002132 200013302 200002124 200083261 200080647 200080648 200060649 200060662 200060663 200060659 200062113 200062114 200062115 200062116 200062117 200062118 200062119 200062120 200062121 200062122 200062123 200062124 200062127 200062128 200062129 200062130 200062131 200062132 200061368 200061369 200061370" />
    </vehicle>
    <vType id="t10609.0_rain" accel="1.0" decel="4.0" maxSpeed="20" minGap="3.0" /><vehicle id="t10609.0" depart="0.00" fromTaz="216" toTaz="404" type="t10609.0_rain">
        <route edges="200014472 200001258 200001259 200001286 200001282 200001281 200013448 200001279 200002123 200002132 200013302 200002124 200083261 200080647 200080648 200060649 200060662 200060663 200060659 200062113 200062114 200062115 200062116 200062117 200062118 200062119 200062120 200062121 200062122 200062123 200062124 200062127 200062128 200062129 200062130 200062131 200062132 200061368 200061369 200063272 200065004" />
    </vehicle>
    <vType id="t10655.0_rain" accel="1.0" decel="4.0" maxSpeed="20" minGap="3.0" /><vehicle id="t10655.0" depart="0.00" fromTaz="216" toTaz="483" type="t10655.0_rain">
        <route edges="200014472 200001258 200001259 200001286 200001282 200001281 200013448 200001279 200002123 200002132 200013302 200002124 200083261 200080647 200080648 200060649 200060662 200060663 200060659 200062113 200062114 200062115 200062116 200062117 200062118 200062119 200062120 200062121 200062122 200062123 200062124 200062127 200062128 200062129 200062130 200062131 200062132 200061415 200061416 200071417 200071418 200071419 200071420 200071421 200071422 200071423 200071424 200071425 200071426 200071251 200071252 200071253 200071254 200071255 200075116 200002480 200007005 200007004 200002476 200071208 200071244 200071245 200002518 200002519 200002562 200002323 200800201 200002295 200002623 200002296 200002297 200002299 200035108 200034626 200034625 200032210" />
    </vehicle>
    <vType id="t10756.0_rain" accel="1.0" decel="4.0" maxSpeed="20" minGap="3.0" /><vehicle id="t10756.0" depart="0.00" fromTaz="217" toTaz="202" type="t10756.0_rain">
        <route edges="200001286 200001282 200001281 200013448 200001279 200002123 200002132 200013302 200002124 200083261 200080647 200080648 200060649 200060662 200060663 200060659 200062113 200062114 200062115 200062116 200062117 200062118 200062119 200062120 200062121 200062122 200062123 200062124 200062127 200062128 200062129 200062130 200062131 200062132 200061415 200061416 200071417 200071418 200071419 200071420 200071421 200071422 200071423 200071424 200071425 200071426 200071251 200071252 200071253 200071201 200073098 200070722 200800202 200002502 200002402 200002408 200002409 200012030 200002412 200002263 200002264 200002552 200012057 200055124 200054332" />
    </vehicle>
    <vType id="t10829.0_rain" accel="1.0" decel="4.0" maxSpeed="20" minGap="3.0" /><vehicle id="t10829.0" depart="0.00" fromTaz="217" toTaz="305" type="t10829.0_rain">
        <route edges="200001286 200001282 200001281 200013448 200001279 200002123 200002132 200013302 200002124 200083261 200080647 200080648 200060649 200060662 200060663 200060659 200062113 200062114 200062115 200062116 200062117 200062118 200062119 200062120 200062121 200062122 200062123 200062124 200062127 200062128 200062129 200062130 200062131 200062132 200061415 200061416 200071417 200071418 200071419 200071420 200071421 200071422 200071423 200071424 200071425 200071426 200071251 200071252 200071253 200071201 200073098 200070722 200800202 200002502" />
    </vehicle>
    <vType id="t10877.0_rain" accel="1.0" decel="4.0" maxSpeed="20" minGap="3.0" /><vehicle id="t10877.0" depart="0.00" fromTaz="217" toTaz="368" type="t10877.0_rain">
        <route edges="200001286 200001282 200001281 200013448 200001279 200002123 200002132 200013302 200002124 200083261 200080647 200080648 200060649 200060662 200060663 200060659 200062113 200062114 200062115 200062116 200062117 200062118 200062119 200062120 200062121 200062122 200062123 200062124 200062127 200062128 200062129 200062130 200062131" />
    </vehicle>
    <vType id="t10879.0_rain" accel="1.0" decel="4.0" maxSpeed="20" minGap="3.0" /><vehicle id="t10879.0" depart="0.00" fromTaz="217" toTaz="370" type="t10879.0_rain">
        <route edges="200001286 200001282 200001281 200013448 200001279 200002123 200002132 200013302 200002124 200083261 200080647 200080648 200060649 200060662 200060663 200060659 200062113 200062114 200062115 200062116 200062117 200062118 200062119 200062120 200062121 200062122 200062123 200062124 200062127 200062128 200062129 200062130 200062131 200062132 200061415 200061416 200071417 200071418 200071419 200071420" />
    </vehicle>
    <vType id="t10962.0_rain" accel="1.0" decel="4.0" maxSpeed="20" minGap="3.0" /><vehicle id="t10962.0" depart="0.00" fromTaz="217" toTaz="503" type="t10962.0_rain">
        <route edges="200001286 200001282 200001281 200013448 200001279 200002123 200002132 200013302 200002124 200083261 200080647 200080648 200060649 200060662 200060663 200060664 200001765 200001637 200001742 200001743 200001746 200001741 200001759 200001613 200001649 200001652 200001616 200001623 200013429 200001620 200001738" />
    </vehicle>
    <vType id="t10983.0_rain" accel="1.0" decel="4.0" maxSpeed="20" minGap="3.0" /><vehicle id="t10983.0" depart="0.00" fromTaz="217" toTaz="533" type="t10983.0_rain">
        <route edges="200001286 200001282 200001281 200013448 200001279 200002123 200002132 200013302 200002124 200083261 200080647 200080648 200060649 200060662 200060663 200001678 200001680 200001681 200000018 200000017 200001683 200001710 200001711 200001712 200001713 200001684 200001719 200001686 200001687 200001720 200001721 200001688 200001718 200001722 200001588 200001791" />
    </vehicle>
    <vType id="t10988.0_rain" accel="1.0" decel="4.0" maxSpeed="20" minGap="3.0" /><vehicle id="t10988.0" depart="0.00" fromTaz="217" toTaz="565" type="t10988.0_rain">
        <route edges="200001286 200001282 200001281 200013448 200001279 200002123 200002132 200013302 200002124 200083261 200080647 200080648 200060649 200060662 200060663 200001678 200001680 200001681 200000018 200000017 200001683 200001710 200001711 200001712 200001713 200001684 200001719 200001686 200001687 200001720 200001721 200001688 200001718 200001722 200001588 200001791 200001589 200001724 200007028 200001530 200025155 200015066 200015070 200020987 200020978" />
    </vehicle>
    <vType id="t11021.0_rain" accel="1.0" decel="4.0" maxSpeed="20" minGap="3.0" /><vehicle id="t11021.0" depart="0.00" fromTaz="218" toTaz="142" type="t11021.0_rain">
        <route edges="200001297 200001277 200001276 200001272 200001271 200001267 200001274 200001288 200001294 200001341 200001340 200001338 200001353 200001354 200001345 200001333 200011005 200001283 200001264 200001262 200001261 200001260 200014470 200014466 200014451 200014441 200014419 200014444 200014250 200014253 200014256 200014258 200014262 200014264 200014269 200014270 200014273 200014443 200014436" />
    </vehicle>
    <vType id="t11026.0_rain" accel="1.0" decel="4.0" maxSpeed="20" minGap="3.0" /><vehicle id="t11026.0" depart="0.00" fromTaz="218" toTaz="176" type="t11026.0_rain">
        <route edges="200001297 200001277 200001276 200001272 200001271 200001267 200001274 200001288 200001294 200001341 200001340 200001338 200001334 200001327 200001324 200001302 200001284 200001257 200001253" />
    </vehicle>
    <vType id="t11053.0_rain" accel="1.0" decel="4.0" maxSpeed="20" minGap="3.0" /><vehicle id="t11053.0" depart="0.00" fromTaz="218" toTaz="213" type="t11053.0_rain">
        <route edges="200001297 200001277 200001276 200001272 200001271 200001267 200001274 200001288 200001294 200001298 200001336" />
    </vehicle>
    <vType id="t11068.0_rain" accel="1.0" decel="4.0" maxSpeed="20" minGap="3.0" /><vehicle id="t11068.0" depart="0.00" fromTaz="218" toTaz="230" type="t11068.0_rain">
        <route edges="200001286 200001282 200001281 200013448 200001269 200002108 200002103 200002095 200002087 200002083 200002077 200002078 200012053 200001941 200001942 200001930 200001934 200002194 200001120 200001123 200001134 200001138 200001139 200001140 200001141 200000782 200000631 200000630 200000629 200000627 200000628 200000006 200000626 200000625 200000623 200000622" />
    </vehicle>
    <vType id="t11083.0_rain" accel="1.0" decel="4.0" maxSpeed="20" minGap="3.0" /><vehicle id="t11083.0" depart="0.00" fromTaz="218" toTaz="257" type="t11083.0_rain">
        <route edges="200001286 200001282 200001281 200013448 200001269 200002108 200002103 200002095 200002087 200002083 200002077 200002078 200012053 200001938 200001943 200001944 200001882 200001925 200084974 200084978 200084965 200084713 200084712" />
    </vehicle>
    <vType id="t11156.0_rain" accel="1.0" decel="4.0" maxSpeed="20" minGap="3.0" /><vehicle id="t11156.0" depart="0.00" fromTaz="218" toTaz="355" type="t11156.0_rain">
        <route edges="200001297 200001277 200001276 200001272 200001271 200001267 200001274 200001288 200001294 200001341 200001340 200001338 200001353 200001354 200001345 200001333 200011005 200001283 200001264 200001262 200001261 200001260 200014470 200014466 200014451 200014441 200014419 200014444 200014250 200014253 200014256 200014257" />
    </vehicle>
    <vType id="t11200.0_rain" accel="1.0" decel="4.0" maxSpeed="20" minGap="3.0" /><vehicle id="t11200.0" depart="0.00" fromTaz="218" toTaz="411" type="t11200.0_rain">
        <route edges="200001286 200001282 200001281 200013448 200001279 200002123 200002132 200013302 200002124 200083261 200080647 200080648 200060649 200060662 200060663 200060659 200062113 200062114 200062115 200062116 200062117 200062118 200062119 200062120 200062121 200062122 200062123 200062124 200062127 200062128 200062129 200062130 200062131 200062132 200061415 200061416 200071417 200071418 200071419 200071420 200071421 200071422 200071423 200071424 200071425 200071426 200071251 200071252 200071253 200071254 200071255 200075116 200002480 200007005 200007004 200002476 200071208 200071244 200071245 200002518 200002617 200002618" />
    </vehicle>
    <vType id="t11207.0_rain" accel="1.0" decel="4.0" maxSpeed="20" minGap="3.0" /><vehicle id="t11207.0" depart="0.00" fromTaz="218" toTaz="426" type="t11207.0_rain">
        <route edges="200001286 200001282 200001281 200013448 200001279 200002123 200002132 200013302 200002124 200083261 200080647 200080648 200060649 200060662 200060663 200001678 200001680 200001681 200000018 200000017 200001683 200001710 200001711 200001712 200001713 200001556 200015022 200015026 200015029" />
    </vehicle>
    <vType id="t11219.0_rain" accel="1.0" decel="4.0" maxSpeed="20" minGap="3.0" /><vehicle id="t11219.0" depart="0.00" fromTaz="218" toTaz="443" type="t11219.0_rain">
        <route edges="200001286 200001282 200001281 200013448 200001279 200002123 200002132 200013302 200002124 200083261 200080647 200080648 200060649 200060662 200060663 200060659 200062113 200062114 200062115 200062116 200062117 200062118 200062119 200062120 200062121 200062122 200062123 200062124 200062127 200062128 200062129 200062130 200062131 200062132 200061415 200061416 200071417 200071418 200071419 200071420 200071421 200071422 200071423 200071424 200071425 200071426 200071249 200071250 200074337" />
    </vehicle>
    <vType id="t1123.0_rain" accel="1.0" decel="4.0" maxSpeed="20" minGap="3.0" /><vehicle id="t1123.0" depart="0.00" fromTaz="167" toTaz="540" type="t1123.0_rain">
        <route edges="200053018 200053019 200053020 200053021 200800205 200093169 200093170 200093171 200092428 200093070 200093071 200075134 200075137 200075139 200071258 200071259 200071260 200071261 200071262 200071263 200071264 200061265 200063744 200063745 200063746 200061286 200064019 200061324 200063132 200000275 200002641 200002642" />
    </vehicle>
    <vType id="t11284.0_rain" accel="1.0" decel="4.0" maxSpeed="20" minGap="3.0" /><vehicle id="t11284.0" depart="0.00" fromTaz="218" toTaz="604" type="t11284.0_rain">
        <route edges="200001286 200001282 200001281 200013448 200001279 200002123 200002132 200013302 200002124 200083261 200080647 200080648 200060649 200060662 200060663 200001678 200001680 200001681 200000018 200000017 200001683 200001710 200001711 200001712 200001713 200001684 200001719 200001686 200001687 200001720 200001721 200001688 200001718 200001722 200001588 200001791 200001589 200001724 200007028 200001528 200020476 200020477" />
    </vehicle>
    <vType id="t11366.0_rain" accel="1.0" decel="4.0" maxSpeed="20" minGap="3.0" /><vehicle id="t11366.0" depart="0.00" fromTaz="219" toTaz="235" type="t11366.0_rain">
        <route edges="200001282 200001281 200013448 200001279 200002123 200002132 200013302 200002124 200083261 200080647 200080648 200060649 200060662 200060663 200060659 200062113 200062114 200062115 200062116 200062117 200062118 200062119 200062120 200062121 200062122 200062123 200062124 200062127 200062128 200062129 200062130 200062131 200062132 200061415 200061416 200071417 200071418 200071419 200071420 200071421 200071422 200071423 200071424 200071425 200071426 200071251 200071252 200071253 200071201 200073098 200070722 200090723 200090724 200090725 200090726 200002605" />
    </vehicle>
    <vType id="t11419.0_rain" accel="1.0" decel="4.0" maxSpeed="20" minGap="3.0" /><vehicle id="t11419.0" depart="0.00" fromTaz="219" toTaz="317" type="t11419.0_rain">
        <route edges="200001297 200001277 200001276 200001272 200001271 200001267 200001274 200001288 200001294 200001341 200001340 200001338 200001353 200001367 200001373 200001379" />
    </vehicle>
    <vType id="t11464.0_rain" accel="1.0" decel="4.0" maxSpeed="20" minGap="3.0" /><vehicle id="t11464.0" depart="0.00" fromTaz="219" toTaz="371" type="t11464.0_rain">
        <route edges="200001282 200001281 200013448 200001279 200002123 200002132 200013302 200002124 200083261 200080647 200080648 200060649 200060662 200060663 200060659 200062113 200062114 200062115 200062116 200062117 200062118 200062119 200062120 200062121 200062122 200062123 200062124 200062127 200062128 200062129 200062130 200062131 200062132 200061415 200061416 200071417 200071418 200071419 200071420 200071421 200071422" />
    </vehicle>
    <vType id="t11477.0_rain" accel="1.0" decel="4.0" maxSpeed="20" minGap="3.0" /><vehicle id="t11477.0" depart="0.00" fromTaz="219" toTaz="394" type="t11477.0_rain">
        <route edges="200001282 200001281 200013448 200001279 200002123 200002132 200013302 200002124 200083261 200080647 200080648 200060649 200060662 200060663 200001678 200001680 200001681 200000018 200000017 200001683 200001710 200001711 200001712 200001713 200001556 200015022 200015024" />
    </vehicle>
    <vType id="t11483.0_rain" accel="1.0" decel="4.0" maxSpeed="20" minGap="3.0" /><vehicle id="t11483.0" depart="0.00" fromTaz="219" toTaz="401" type="t11483.0_rain">
        <route edges="200001282 200001281 200013448 200001279 200002123 200002132 200013302 200002124 200083261 200080647 200080648 200060649 200060662 200060663 200060659 200062113 200062114 200062115 200062116 200062117 200062118 200062119 200062120 200062121 200062122 200062123 200062124 200061409" />
    </vehicle>
    <vType id="t11517.0_rain" accel="1.0" decel="4.0" maxSpeed="20" minGap="3.0" /><vehicle id="t11517.0" depart="0.00" fromTaz="219" toTaz="457" type="t11517.0_rain">
        <route edges="200001282 200001281 200013448 200001279 200002123 200002132 200013302 200002124 200083261 200080647 200080648 200060649 200060662 200060663 200001678 200001680 200001681 200000018 200000017 200001683 200001710 200001711 200001712 200001713 200001684 200001719 200001686 200001687 200001720 200001721 200001688 200001718 200001722 200001588 200001791 200001589 200001724 200007028 200001530 200025155 200015066 200015070 200020731 200020983 200014224 200014214" />
    </vehicle>
    <vType id="t11527.0_rain" accel="1.0" decel="4.0" maxSpeed="20" minGap="3.0" /><vehicle id="t11527.0" depart="0.00" fromTaz="219" toTaz="470" type="t11527.0_rain">
        <route edges="200001282 200001281 200013448 200001279 200002123 200002132 200013302 200002124 200083261 200080647 200080648 200060649 200060662 200060663 200060659 200062113 200062114 200062115 200062116 200062117 200062118 200062119 200062120 200062121 200062122 200062123 200062124 200062127 200062128 200062129 200062130 200062131 200062132 200063744 200063745 200063746 200061286 200064019 200061324 200063132 200000275" />
    </vehicle>
    <vType id="t11537.0_rain" accel="1.0" decel="4.0" maxSpeed="20" minGap="3.0" /><vehicle id="t11537.0" depart="0.00" fromTaz="219" toTaz="493" type="t11537.0_rain">
        <route edges="200001282 200001281 200013448 200001279 200002123 200002132 200013302 200002124 200083261 200080647 200080648 200060649 200060662 200060663 200001678 200001680 200001681 200000018 200000017 200001683 200001710 200001711 200001712 200001713 200001684 200001719 200001686 200001687 200001720 200001721 200001688 200001718 200001722 200001588 200001791 200001589 200001724 200007028 200001530 200025155 200015066 200015070 200020731 200020983 200014222" />
    </vehicle>
    <vType id="t11546.0_rain" accel="1.0" decel="4.0" maxSpeed="20" minGap="3.0" /><vehicle id="t11546.0" depart="0.00" fromTaz="219" toTaz="503" type="t11546.0_rain">
        <route edges="200001282 200001281 200013448 200001279 200002123 200002132 200013302 200002124 200083261 200080647 200080648 200060649 200060662 200060663 200060664 200001765 200001637 200001742 200001743 200001746 200001741 200001759 200001613 200001649 200001652 200001616 200001623 200013429 200001620 200001738" />
    </vehicle>
    <vType id="t11559.0_rain" accel="1.0" decel="4.0" maxSpeed="20" minGap="3.0" /><vehicle id="t11559.0" depart="0.00" fromTaz="219" toTaz="518" type="t11559.0_rain">
        <route edges="200001282 200001281 200013448 200001279 200002123 200002132 200013302 200002124 200083261 200080647 200080648 200060649 200060662 200060663 200060659 200062113 200062114 200062115 200062116 200062117 200062118 200062119 200062120 200062121 200062122 200062123 200062124 200062127 200062128 200062129 200062130 200062131 200062132 200061415 200061416 200071417 200071418 200071419 200071420 200071421 200071422 200071423 200071424 200071425 200071426 200071251 200071252 200071253 200071254 200071255 200075116 200002480 200007005 200007004 200002476 200071208 200071244 200071245 200002518 200002519 200002562 200002323 200800201 200002295 200002623 200002296 200002297 200002299 200035108 200034626 200034625" />
    </vehicle>
    <vType id="t11563.0_rain" accel="1.0" decel="4.0" maxSpeed="20" minGap="3.0" /><vehicle id="t11563.0" depart="0.00" fromTaz="219" toTaz="529" type="t11563.0_rain">
        <route edges="200001282 200001281 200013448 200001279 200002123 200002132 200013302 200002124 200083261 200080647 200080648 200060649 200060662 200060663 200001678 200001680 200001681 200000018 200000017 200001683 200001710 200001711 200001712 200001713 200001684 200001719 200001686 200001687 200001720 200001721 200001688 200001718 200001722 200001588 200001791 200001589 200001724 200007028 200001530 200025155 200015066 200015070 200020987 200020979 200020980 200020981" />
    </vehicle>
    <vType id="t11583.0_rain" accel="1.0" decel="4.0" maxSpeed="20" minGap="3.0" /><vehicle id="t11583.0" depart="0.00" fromTaz="219" toTaz="614" type="t11583.0_rain">
        <route edges="200001282 200001281 200013448 200001279 200002123 200002132 200013302 200002124 200083261 200080647 200080648 200060649 200060662 200060663 200060664 200001765 200001637 200001742 200001743 200001746 200001741 200001759 200001613 200001649 200001652 200001616 200001623 200013429 200001620 200001738 200001739 200001740 200001735 200002748 200002749 200002745 200002747 200002746 200002645 200002646 200002671 200002647 200002648 200002649 200002650" />
    </vehicle>
    <vType id="t11586.0_rain" accel="1.0" decel="4.0" maxSpeed="20" minGap="3.0" /><vehicle id="t11586.0" depart="0.00" fromTaz="219" toTaz="617" type="t11586.0_rain">
        <route edges="200001282 200001281 200013448 200001279 200002123 200002132 200013302 200002124 200083261 200080647 200080648 200060649 200060662 200060663 200060664 200001765 200001637 200001742 200001743 200001746 200001741 200001759 200001613 200001649 200001652 200001616 200001623 200013429 200001620 200001738 200001739 200001740 200001735 200002748 200002749 200002745 200002747 200002746 200002645 200002646 200002671 200002647 200002648 200002649 200002650 200002651 200002652 200002660 200002653" />
    </vehicle>
    <vType id="t11657.0_rain" accel="1.0" decel="4.0" maxSpeed="20" minGap="3.0" /><vehicle id="t11657.0" depart="0.00" fromTaz="220" toTaz="234" type="t11657.0_rain">
        <route edges="200001279 200002123 200002132 200013302 200002124 200083261 200080647 200080648 200060649 200060662 200060663 200060659 200062113 200062114 200062115 200062116 200062117 200062118 200062119 200062120 200062121 200062122 200062123 200062124 200062127 200062128 200062129 200062130 200062131 200062132 200061415 200061416 200071417 200071418 200071419 200071420 200071421 200071422 200071423 200071424 200071425 200071426 200071251 200071252 200071253 200071201 200073098 200070722 200090723 200090724 200090725 200090726" />
    </vehicle>