<routes xmlns:xsi="http://www.w3.org/2001/XMLSchema-instance" xsi:noNamespaceSchemaLocation="http://sumo.dlr.de/xsd/routes_file.xsd">
    <vehicle id="t10009.0" depart="0.00" fromTaz="214" toTaz="366">
        <route edges="200001283 200001264 200001262 200001261 200001260 200014472 200001258 200001259 200001286 200001282 200001281 200013448 200001279 200002123 200002132 200013302 200002124 200083261 200080647 200080648 200060649 200060662 200060663 200060659 200062113 200062114 200062115 200062116 200062117 200062118 200062119 200062120 200062121 200062122 200062123 200062124 200062127" />
    </vehicle>
    <vehicle id="t10028.0" depart="0.00" fromTaz="214" toTaz="395">
        <route edges="200001283 200001264 200001262 200001261 200001260 200014472 200001258 200001259 200001286 200001282 200001281 200013448 200001279 200002123 200002132 200013302 200002124 200083261 200080647 200080648 200060649 200060662 200060663 200060664" />
    </vehicle>
    <vehicle id="t10052.0" depart="0.00" fromTaz="214" toTaz="428">
        <route edges="200001283 200001264 200001262 200001261 200001260 200014472 200001258 200001259 200001286 200001282 200001281 200013448 200001279 200002123 200002132 200013302 200002124 200083261 200080647 200080648 200060649 200060662 200060663 200001678 200001680 200001681 200000018 200000017 200001683 200001710 200001711 200001712 200001713 200001556 200015022" />
    </vehicle>
    <vehicle id="t10054.0" depart="0.00" fromTaz="214" toTaz="430">
        <route edges="200001283 200001264 200001262 200001261 200001260 200014472 200001258 200001259 200001286 200001282 200001281 200013448 200001279 200002123 200002132 200013302 200002124 200083261 200080647 200080648 200060649 200060662 200060663 200060664 200001765 200001637 200001742 200001743 200001746" />
    </vehicle>
    <vehicle id="t10063.0" depart="0.00" fromTaz="214" toTaz="444">
        <route edges="200001283 200001264 200001262 200001261 200001260 200014472 200001258 200001259 200001286 200001282 200001281 200013448 200001279 200002123 200002132 200013302 200002124 200083261 200080647 200080648 200060649 200060662 200060663 200060659 200062113 200062114 200062115 200062116 200062117 200062118 200062119 200062120 200062121 200062122 200062123 200062124 200062127 200062128 200062129 200062130 200062131 200062132 200061415 200061416 200071417 200071418 200071419 200071420 200071421 200071422 200071423 200071424 200071425 200071426 200071251 200071252 200071253 200071254 200071255 200075116 200002480 200007005 200007004 200002476 200071208 200071244 200071245 200002518 200002519 200002562 200002323" />
    </vehicle>
    <vehicle id="t1009.0" depart="0.00" fromTaz="167" toTaz="364">
        <route edges="200053018 200053019 200053020 200053021 200800205 200093169 200093170 200093171 200092428 200093070 200093071 200075134 200075137 200075139 200071258 200071259 200071260 200071261 200071262 200071263 200071264 200061265 200063744 200063745 200063746 200063747 200063748 200063749 200063751 200063752 200063753" />
    </vehicle>
    <vehicle id="t10104.0" depart="0.00" fromTaz="214" toTaz="513">
        <route edges="200001283 200001264 200001262 200001261 200001260 200014472 200001258 200001259 200001286 200001282 200001281 200013448 200001279 200002123 200002132 200013302 200002124 200083261 200080647 200080648 200060649 200060662 200060663 200060659 200062113 200062114 200062115 200062116 200062117 200062118 200062119 200062120 200062121 200062122 200062123 200062124 200062127 200062128 200062129 200062130 200062131 200062132 200061415 200061416 200071417 200071418 200071419 200071420 200071421 200071422 200071423 200071424 200071425 200071426 200071251 200071252 200071253 200071254 200071255 200075116 200002480 200007005 200007004 200002476 200071208 200071244 200071245 200002518 200002519 200002562 200002323 200800201 200002295" />
    </vehicle>
    <vehicle id="t10134.0" depart="0.00" fromTaz="214" toTaz="615">
        <route edges="200001283 200001264 200001262 200001261 200001260 200014472 200001258 200001259 200001286 200001282 200001281 200013448 200001279 200002123 200002132 200013302 200002124 200083261 200080647 200080648 200060649 200060662 200060663 200060664 200001765 200001637 200001742 200001743 200001746 200001741 200001759 200001613 200001649 200001652 200001616 200001623 200013429 200001620 200001738 200001739 200001740 200001735 200002748 200002749 200002745 200002747 200002746 200002645 200002646 200002671 200002647 200002648 200002649 200002650 200002651" />
    </vehicle>
    <vehicle id="t10135.0" depart="0.00" fromTaz="214" toTaz="616">
        <route edges="200001283 200001264 200001262 200001261 200001260 200014472 200001258 200001259 200001286 200001282 200001281 200013448 200001279 200002123 200002132 200013302 200002124 200083261 200080647 200080648 200060649 200060662 200060663 200060664 200001765 200001637 200001742 200001743 200001746 200001741 200001759 200001613 200001649 200001652 200001616 200001623 200013429 200001620 200001738 200001739 200001740 200001735 200002748 200002749 200002745 200002747 200002746 200002645 200002646 200002671 200002647 200002648 200002649 200002650 200002651 200002652 200002709" />
    </vehicle>
    <vehicle id="t10178.0" depart="0.00" fromTaz="215" toTaz="200">
        <route edges="200014250 200014254 200001380 200001401 200001524 200001408 200001410 200001416 200001427 200001433 200001437 200001452 200001457 200062111 200062113 200062114 200062115 200062116 200062117 200062118 200062119 200062120 200062121 200062122 200062123 200062124 200062127 200062128 200062129 200062130 200062131 200062132 200061415 200061416 200071417 200071418 200071419 200071420 200071421 200071422 200071423 200071424 200071425 200071426 200071251 200071252 200071253 200071201 200073098 200070722 200090723 200090724 200090725 200090726 200800206 200054813" />
    </vehicle>
    <vehicle id="t10183.0" depart="0.00" fromTaz="215" toTaz="211">
        <route edges="200001288 200001294 200001298 200001336 200001335 200001322" />
    </vehicle>
    <vehicle id="t10201.0" depart="0.00" fromTaz="215" toTaz="232">
        <route edges="200014250 200014254 200001380 200001401 200001524 200001408 200001410 200001416 200001427 200001433 200001437 200001452 200001457 200062111 200062113 200062114 200062115 200062116 200062117 200062118 200062119 200062120 200062121 200062122 200062123 200062124 200062127 200062128 200062129 200062130 200062131 200062132 200061415 200061416 200071417 200071418 200071419 200071420 200071421 200071422 200071423 200071424 200071425 200071426 200075131 200075129 200075130 200093105 200093106 200093107 200094908 200093109 200093091 200093092 200002599" />
    </vehicle>
    <vehicle id="t10211.0" depart="0.00" fromTaz="215" toTaz="256">
        <route edges="200001260 200014472 200001258 200001259 200001286 200001282 200001281 200013448 200001279 200002123 200002132 200013302 200002124" />
    </vehicle>
    <vehicle id="t10217.0" depart="0.00" fromTaz="215" toTaz="263">
        <route edges="200014250 200014254 200001380 200001401 200001524 200001408 200001410 200001416 200001427 200001433 200001437 200001452 200001457 200062111 200062113 200062114 200062115 200062116 200062117 200062118 200062119 200062120 200062121 200062122 200062123 200062124 200062127 200062128 200062129 200062130 200062131 200062132 200062092 200062094 200082095 200082096 200082097 200082098 200082099 200082100" />
    </vehicle>
    <vehicle id="t10219.0" depart="0.00" fromTaz="215" toTaz="266">
        <route edges="200014250 200014254 200001380 200001401 200001524 200001408 200001410 200001416 200001427 200001433 200001437 200001452 200001457 200062111 200062113 200062114 200062115 200062116 200062117 200062118 200062119 200062120 200062121 200062122 200062123 200062124 200062127 200062128 200062129 200062130 200062131 200062132 200062092 200062094 200082095 200082244 200080718 200090719 200091169 200091170 200092658" />
    </vehicle>
    <vehicle id="t1022.0" depart="0.00" fromTaz="167" toTaz="377">
        <route edges="200053018 200053019 200053020 200053021 200800205 200093169 200093170 200093171 200092428 200093070 200093071 200075136 200075138 200075141 200071251 200071252 200071253 200071254 200071255 200075116 200002480 200007005 200007003 200002484 200014503 200014522" />
    </vehicle>
    <vehicle id="t10227.0" depart="0.00" fromTaz="215" toTaz="274">
        <route edges="200014250 200014254 200001380 200001401 200001524 200001408 200001410 200001416 200001427 200001433 200001437 200001452 200001457 200062111 200062113 200062114 200062115 200062116 200062117 200062118 200062119 200062120 200062121 200062122 200062123 200062124 200062127 200062128 200062129 200062130 200062131 200062132 200061415 200061416 200071417 200071418 200071419 200071420 200071421 200071422 200071423 200071424 200071425 200071426 200071251 200071252 200071253 200071201 200073098 200070722 200800202 200002502 200002402 200002408 200002410 200002416 200002417 200002282 200002283 200014525 200014526" />
    </vehicle>
    <vehicle id="t10291.0" depart="0.00" fromTaz="215" toTaz="365">
        <route edges="200014250 200014254 200001380 200001401 200001524 200001408 200001410 200001416 200001427 200001433 200001437 200001452 200001457 200062111 200062113 200062114 200062115 200062116 200062117 200062118 200062119 200062120 200062121 200062122" />
    </vehicle>
    <vehicle id="t10322.0" depart="0.00" fromTaz="215" toTaz="407">
        <route edges="200014250 200014254 200001380 200001401 200001524 200001408 200001410 200001416 200001427 200001433 200001437 200001452 200001457 200062111 200062113 200062114 200062115 200062116 200062117 200062118 200062119 200062120 200062121 200062122 200062123 200062124 200062127 200062128 200062129 200062130 200062131 200062132 200061415 200061416 200071417 200071418 200071419 200071420 200071421 200071422 200071423 200071424 200071425 200071426 200071249 200071250" />
    </vehicle>
    <vehicle id="t10424.0" depart="0.00" fromTaz="215" toTaz="649">
        <route edges="200014250 200014254 200001380 200001401 200001524 200001408 200001410 200001416 200001427 200001433 200001437 200001452 200001457 200062111 200060662 200060663 200060664 200001765 200001637 200001742 200001743 200001746 200001741 200001759 200001613 200001649 200001652 200001616 200001623 200013429 200001620 200001738 200001739 200001740 200001735 200002748 200002749 200002745 200002747 200002746 200002645 200002646 200002671 200002647 200002648 200002649 200002650 200002708" />
    </vehicle>
    <vehicle id="t10433.0" depart="0.00" fromTaz="215" toTaz="686">
        <route edges="200014250 200014254 200001380 200001401 200001524 200001408 200001410 200001416 200001427 200001433 200001437 200001452 200001457 200062111 200060662 200060663 200060664 200001765 200001637 200001742 200001743 200001746 200001741 200001759 200001613 200001649 200001652 200001616 200001623 200013429 200001620 200001738 200001739 200001740 200001735 200002748 200002749 200002745 200002747 200002746 200002645 200002646 200002671 200002647 200002648 200002649 200002650 200002708 200002682 200002683 200002694 200002684 200013428 200013424 200002719" />
    </vehicle>
    <vehicle id="t10458.0" depart="0.00" fromTaz="216" toTaz="195">
        <route edges="200014472 200001258 200001259 200001286 200001282 200001281 200013448 200001269 200002108 200002103 200002095 200002087 200002083 200002077 200002078 200012053 200001941 200001942 200001930 200001934 200002194 200001120 200001123 200001134 200001138 200001139 200001140 200001141 200000782 200000631 200000630 200000629 200000627 200000628 200000006 200000626 200000625 200000623 200000620 200001106 200001085 200001036" />
    </vehicle>
    <vehicle id="t10461.0" depart="0.00" fromTaz="216" toTaz="199">
        <route edges="200014472 200001258 200001259 200001286 200001282 200001281 200013448 200001279 200002123 200002132 200013302 200002124 200083261 200080647 200080648 200060649 200060662 200060663 200060659 200062113 200062114 200062115 200062116 200062117 200062118 200062119 200062120 200062121 200062122 200062123 200062124 200062127 200062128 200062129 200062130 200062131 200062132 200061415 200061416 200071417 200071418 200071419 200071420 200071421 200071422 200071423 200071424 200071425 200071426 200071251 200071252 200071253 200071201 200073098 200070722 200090723 200090724 200090725 200090726 200800206" />
    </vehicle>
    <vehicle id="t10467.0" depart="0.00" fromTaz="216" toTaz="211">
        <route edges="200001272 200001271 200001267 200001274 200001288 200001294 200001298 200001336 200001335 200001322" />
    </vehicle>
    <vehicle id="t10488.0" depart="0.00" fromTaz="216" toTaz="233">
        <route edges="200014472 200001258 200001259 200001286 200001282 200001281 200013448 200001279 200002123 200002132 200013302 200002124 200083261 200080647 200080648 200060649 200060662 200060663 200060659 200062113 200062114 200062115 200062116 200062117 200062118 200062119 200062120 200062121 200062122 200062123 200062124 200062127 200062128 200062129 200062130 200062131 200062132 200061415 200061416 200071417 200071418 200071419 200071420 200071421 200071422 200071423 200071424 200071425 200071426 200075131 200075129 200075130 200093105 200093106 200093107 200094908 200093109 200093091 200093092 200094918 200094917 200002598 200002600" />
    </vehicle>
    <vehicle id="t10503.0" depart="0.00" fromTaz="216" toTaz="262">
        <route edges="200014472 200001258 200001259 200001286 200001282 200001281 200013448 200001269 200002108 200002103 200002095 200002087 200002083 200002077 200002078 200012053 200001941 200001942 200001930 200001934 200002194 200001120 200001123 200001134 200001138 200001139 200001208 200084989" />
    </vehicle>
    <vehicle id="t10504.0" depart="0.00" fromTaz="216" toTaz="263">
        <route edges="200014472 200001258 200001259 200001286 200001282 200001281 200013448 200001269 200002108 200002103 200002095 200002087 200002083 200002077 200002078 200012053 200001941 200001942 200001930 200001934 200002194 200001120 200001123 200001134 200001138 200001139 200001140 200001141 200000782 200000631 200000630 200000629 200000657 200000658" />
    </vehicle>
    <vehicle id="t10558.0" depart="0.00" fromTaz="216" toTaz="334">
        <route edges="200014472 200001258 200001259 200001286 200001282 200001281 200013448 200001279 200002123 200002132 200013302 200002124 200083261 200080647 200080648 200060649 200060662 200060663 200060659 200062113 200062114 200062115 200062116 200062117 200062118 200062119 200062120 200062121 200062122 200062123 200062124 200062127 200062128 200062129 200062130 200062131 200062132 200062251 200061330 200061331 200071332 200074357" />
    </vehicle>
    <vehicle id="t10590.0" depart="0.00" fromTaz="216" toTaz="374">
        <route edges="200014472 200001258 200001259 200001286 200001282 200001281 200013448 200001279 200002123 200002132 200013302 200002124 200083261 200080647 200080648 200060649 200060662 200060663 200060659 200062113 200062114 200062115 200062116 200062117 200062118 200062119 200062120 200062121 200062122 200062123 200062124 200062127 200062128 200062129 200062130 200062131 200062132 200061415 200061416 200071417 200071418 200071419 200071420 200071421 200071422 200071423 200071424 200071425 200071426 200071249 200074314 200074313" />
    </vehicle>
    <vehicle id="t10602.0" depart="0.00" fromTaz="216" toTaz="396">
        <route edges="200014472 200001258 200001259 200001286 200001282 200001281 200013448 200001279 200002123 200002132 200013302 200002124 200083261 200080647 200080648 200060649 200060662 200062661 200064849 200061302" />
    </vehicle>
    <vehicle id="t10651.0" depart="0.00" fromTaz="216" toTaz="475">
        <route edges="200014472 200001258 200001259 200001286 200001282 200001281 200013448 200001279 200002123 200002132 200013302 200002124 200083261 200080647 200080648 200060649 200060662 200060663 200060664 200001765 200001637 200001742 200001743 200001746 200001741 200001759 200001613 200001649 200001652 200001616 200001623 200013429 200001620 200001738 200001739 200001740 200001735 200002748 200002749 200002751 200014305 200014302" />
    </vehicle>
    <vehicle id="t10706.0" depart="0.00" fromTaz="216" toTaz="614">
        <route edges="200014472 200001258 200001259 200001286 200001282 200001281 200013448 200001279 200002123 200002132 200013302 200002124 200083261 200080647 200080648 200060649 200060662 200060663 200060664 200001765 200001637 200001742 200001743 200001746 200001741 200001759 200001613 200001649 200001652 200001616 200001623 200013429 200001620 200001738 200001739 200001740 200001735 200002748 200002749 200002745 200002747 200002746 200002645 200002646 200002671 200002647 200002648 200002649 200002650" />
    </vehicle>
    <vehicle id="t10718.0" depart="0.00" fromTaz="216" toTaz="672">
        <route edges="200014472 200001258 200001259 200001286 200001282 200001281 200013448 200001279 200002123 200002132 200013302 200002124 200083261 200080647 200080648 200060649 200060662 200060663 200001678 200001680 200001681 200000018 200000017 200001683 200001710 200001711 200001712 200001713 200001684 200001719 200001686 200001687 200001720 200001721 200001688 200001718 200001722 200001588 200001791 200001589 200001724 200007028 200001528 200020476 200020477 200021947" />
    </vehicle>
    <vehicle id="t10800.0" depart="0.00" fromTaz="217" toTaz="267">
        <route edges="200001286 200001282 200001281 200013448 200001279 200002123 200002132 200013302 200002124 200083261 200080647 200080648 200060649 200060662 200060663 200060659 200062113 200062114 200062115 200062116 200062117 200062118 200062119 200062120 200062121 200062122 200062123 200062124 200062127 200062128 200062129 200062130 200062131 200062132 200061415 200061416 200071417 200071418 200071419 200071420 200071421 200071422 200071423 200071424 200071425 200071426 200075131 200075129 200075130 200093105 200093106 200093107 200094909 200093087" />
    </vehicle>
    <vehicle id="t10820.0" depart="0.00" fromTaz="217" toTaz="294">
        <route edges="200001286 200001282 200001281 200013448 200001269 200002108 200002103 200002095 200002087 200002083 200002077 200002078 200012053 200001938 200001943 200001944 200001882 200001925 200084974 200084978 200084965 200084713" />
    </vehicle>
    <vehicle id="t10834.0" depart="0.00" fromTaz="217" toTaz="316">
        <route edges="200001272 200001271 200001267 200001274 200001288 200001294 200001341 200001340 200001355 200001360 200001376 200001383" />
    </vehicle>
    <vehicle id="t10844.0" depart="0.00" fromTaz="217" toTaz="326">
        <route edges="200001286 200001282 200001281 200013448 200001279 200002123 200002132 200013302 200002124 200083261 200080647 200080648 200060649" />
    </vehicle>
    <vehicle id="t10871.0" depart="0.00" fromTaz="217" toTaz="362">
        <route edges="200001286 200001282 200001281 200013448 200001279 200002123 200002132 200013302 200002124 200083261 200080647 200080648 200060649 200060662 200062661 200064849" />
    </vehicle>
    <vehicle id="t10875.0" depart="0.00" fromTaz="217" toTaz="366">
        <route edges="200001286 200001282 200001281 200013448 200001279 200002123 200002132 200013302 200002124 200083261 200080647 200080648 200060649 200060662 200060663 200060659 200062113 200062114 200062115 200062116 200062117 200062118 200062119 200062120 200062121 200062122 200062123 200062124 200062127" />
    </vehicle>
    <vehicle id="t10901.0" depart="0.00" fromTaz="217" toTaz="403">
        <route edges="200001286 200001282 200001281 200013448 200001279 200002123 200002132 200013302 200002124 200083261 200080647 200080648 200060649 200060662 200060663 200060659 200062113 200062114 200062115 200062116 200062117 200062118 200062119 200062120 200062121 200062122 200062123 200062124 200062127 200062128 200062129 200062130 200062131 200062132 200061368 200061369 200061370" />
    </vehicle>
    <vehicle id="t10959.0" depart="0.00" fromTaz="217" toTaz="500">
        <route edges="200001286 200001282 200001281 200013448 200001279 200002123 200002132 200013302 200002124 200083261 200080647 200080648 200060649 200060662 200060663 200060664 200001765 200001637 200001742 200001743 200001746 200001741 200001759 200001613 200001649 200001657 200001610 200001698" />
    </vehicle>
    <vehicle id="t11010.0" depart="0.00" fromTaz="217" toTaz="652">
        <route edges="200001286 200001282 200001281 200013448 200001279 200002123 200002132 200013302 200002124 200083261 200080647 200080648 200060649 200060662 200060663 200060664 200001765 200001637 200001742 200001743 200001746 200001741 200001759 200001613 200001649 200001652 200001616 200001623 200013429 200001620 200001738 200001739 200001740 200001735 200002748 200002749 200002745 200002747 200002746 200002645 200002646 200002671 200002647 200002648 200002649 200002650 200002651 200002652 200002709 200002710" />
    </vehicle>
    <vehicle id="t11012.0" depart="0.00" fromTaz="217" toTaz="673">
        <route edges="200001286 200001282 200001281 200013448 200001279 200002123 200002132 200013302 200002124 200083261 200080647 200080648 200060649 200060662 200060663 200001678 200001680 200001681 200000018 200000017 200001683 200001710 200001711 200001712 200001713 200001684 200001719 200001686 200001687 200001720 200001721 200001688 200001718 200001722 200001588 200001791 200001589 200001724 200007028 200001528 200020476 200020477 200021947" />
    </vehicle>
    <vehicle id="t11021.0" depart="0.00" fromTaz="218" toTaz="142">
        <route edges="200001297 200001277 200001276 200001272 200001271 200001267 200001274 200001288 200001294 200001341 200001340 200001338 200001353 200001354 200001345 200001333 200011005 200001283 200001264 200001262 200001261 200001260 200014470 200014466 200014451 200014441 200014419 200014444 200014250 200014253 200014256 200014258 200014262 200014264 200014269 200014270 200014273 200014443 200014436" />
    </vehicle>
    <vehicle id="t11040.0" depart="0.00" fromTaz="218" toTaz="193">
        <route edges="200001286 200001282 200001281 200013448 200001269 200002108 200002103 200002095 200002087 200002083 200002077 200002078 200012053 200001941 200001942 200001930 200001934 200002194 200001120 200001123 200001134 200001138 200001139 200001140 200001141 200000782 200000631 200000630 200000629 200000627 200000628 200000006 200000786 200001206 200001203" />
    </vehicle>
    <vehicle id="t11045.0" depart="0.00" fromTaz="218" toTaz="199">
        <route edges="200001286 200001282 200001281 200013448 200001279 200002123 200002132 200013302 200002124 200083261 200080647 200080648 200060649 200060662 200060663 200060659 200062113 200062114 200062115 200062116 200062117 200062118 200062119 200062120 200062121 200062122 200062123 200062124 200062127 200062128 200062129 200062130 200062131 200062132 200061415 200061416 200071417 200071418 200071419 200071420 200071421 200071422 200071423 200071424 200071425 200071426 200071251 200071252 200071253 200071201 200073098 200070722 200090723 200090724 200090725 200090726 200800206" />
    </vehicle>
    <vehicle id="t1105.0" depart="0.00" fromTaz="167" toTaz="511">
        <route edges="200053018 200053019 200053020 200053021 200800205 200093169 200093170 200093171 200092428 200093070 200093071 200075134 200075137 200075139 200071258 200071259 200071260 200071261 200071262 200071263 200071264 200061265 200063744 200063745 200063746 200063747 200063748 200063749 200063751 200063752 200063753 200063754 200061266 200061267 200061268 200001783 200013429 200001620 200001738 200001739 200001740 200001735 200002748 200002749 200002751 200014305 200014301" />
    </vehicle>
    <vehicle id="t11061.0" depart="0.00" fromTaz="218" toTaz="223">
        <route edges="200001286 200001282 200001281 200013448 200001269 200002108 200002103 200002095 200002087" />
    </vehicle>
    <vehicle id="t11072.0" depart="0.00" fromTaz="218" toTaz="234">
        <route edges="200001286 200001282 200001281 200013448 200001279 200002123 200002132 200013302 200002124 200083261 200080647 200080648 200060649 200060662 200060663 200060659 200062113 200062114 200062115 200062116 200062117 200062118 200062119 200062120 200062121 200062122 200062123 200062124 200062127 200062128 200062129 200062130 200062131 200062132 200061415 200061416 200071417 200071418 200071419 200071420 200071421 200071422 200071423 200071424 200071425 200071426 200071251 200071252 200071253 200071201 200073098 200070722 200090723 200090724 200090725 200090726" />
    </vehicle>
    <vehicle id="t11125.0" depart="0.00" fromTaz="218" toTaz="316">
        <route edges="200001297 200001277 200001276 200001272 200001271 200001267 200001274 200001288 200001294 200001341 200001340 200001355 200001360 200001376 200001383" />
    </vehicle>
    <vehicle id="t11216.0" depart="0.00" fromTaz="218" toTaz="440">
        <route edges="200001286 200001282 200001281 200013448 200001279 200002123 200002132 200013302 200002124 200083261 200080647 200080648 200060649 200060662 200060663 200060659 200062113 200062114 200062115 200062116 200062117 200062118 200062119 200062120 200062121 200062122 200062123 200062124 200062127 200062128 200062129 200062130 200062131 200062132 200061368 200061369 200061370 200064842 200064964 200064965 200064966 200074841" />
    </vehicle>
    <vehicle id="t11217.0" depart="0.00" fromTaz="218" toTaz="441">
        <route edges="200001286 200001282 200001281 200013448 200001279 200002123 200002132 200013302 200002124 200083261 200080647 200080648 200060649 200060662 200060663 200060659 200062113 200062114 200062115 200062116 200062117 200062118 200062119 200062120 200062121 200062122 200062123 200062124 200062127 200062128 200062129 200062130 200062131 200062132 200061368 200061369 200061370 200064842 200064964 200064965 200064966 200074841 200074840 200074839" />
    </vehicle>
    <vehicle id="t11247.0" depart="0.00" fromTaz="218" toTaz="496">
        <route edges="200001286 200001282 200001281 200013448 200001279 200002123 200002132 200013302 200002124 200083261 200080647 200080648 200060649 200060662 200060663 200001678 200001680 200001681 200000018 200000017 200001683 200001710 200001711 200001712 200001713 200001684 200001719 200001686 200001687 200001720 200001721 200001688 200001718 200001722 200001588 200001791 200001589 200001724 200007028 200001530 200025155 200015066 200015032" />
    </vehicle>
    <vehicle id="t11272.0" depart="0.00" fromTaz="218" toTaz="531">
        <route edges="200001286 200001282 200001281 200013448 200001279 200002123 200002132 200013302 200002124 200083261 200080647 200080648 200060649 200060662 200060663 200001678 200001680 200001681 200000018 200000017 200001683 200001710 200001711 200001712 200001713 200001684 200001719 200001686 200001687 200001720 200001721 200001688 200001718 200001722 200001588 200001791 200001589 200001724 200007028 200001530 200025155 200015066 200015070" />
    </vehicle>
    <vehicle id="t11306.0" depart="0.00" fromTaz="218" toTaz="685">
        <route edges="200001286 200001282 200001281 200013448 200001279 200002123 200002132 200013302 200002124 200083261 200080647 200080648 200060649 200060662 200060663 200060664 200001765 200001637 200001742 200001743 200001746 200001741 200001759 200001613 200001649 200001652 200001616 200001623 200013429 200001620 200001738 200001739 200001740 200001735 200002748 200002749 200002745 200002747 200002746 200002645 200002646 200002671 200002647 200002648 200002649 200002650 200002708 200002682 200002683 200002694 200002684 200013428 200013424 200002719 200002727 200002728" />
    </vehicle>
    <vehicle id="t11320.0" depart="0.00" fromTaz="219" toTaz="179">
        <route edges="200001297 200001277 200001276 200001272 200001271 200001267 200001274 200001288 200001294 200001341 200001340 200001338 200001353 200001354 200001345 200001333 200011005 200001283 200001264 200001262 200001261 200001260 200014470 200014466 200014451 200014441" />
    </vehicle>
    <vehicle id="t11343.0" depart="0.00" fromTaz="219" toTaz="211">
        <route edges="200001297 200001277 200001276 200001272 200001271 200001267 200001274 200001288 200001294 200001298 200001336 200001335 200001322" />
    </vehicle>
    <vehicle id="t11466.0" depart="0.00" fromTaz="219" toTaz="373">
        <route edges="200001282 200001281 200013448 200001279 200002123 200002132 200013302 200002124 200083261 200080647 200080648 200060649 200060662 200060663 200060659 200062113 200062114 200062115 200062116 200062117 200062118 200062119 200062120 200062121 200062122 200062123 200062124 200062127 200062128 200062129 200062130 200062131 200062132 200061415 200061416 200071417 200071418 200071419 200071420 200071421 200071422 200071423 200071424 200071425 200071426 200071249" />
    </vehicle>
    <vehicle id="t11486.0" depart="0.00" fromTaz="219" toTaz="404">
        <route edges="200001282 200001281 200013448 200001279 200002123 200002132 200013302 200002124 200083261 200080647 200080648 200060649 200060662 200060663 200060659 200062113 200062114 200062115 200062116 200062117 200062118 200062119 200062120 200062121 200062122 200062123 200062124 200062127 200062128 200062129 200062130 200062131 200062132 200061368 200061369 200063272 200065004" />
    </vehicle>
    <vehicle id="t11493.0" depart="0.00" fromTaz="219" toTaz="411">