<?xml version='1.0' encoding='utf-8'?>
<routes xmlns:xsi="http://www.w3.org/2001/XMLSchema-instance" xsi:noNamespaceSchemaLocation="http://sumo.dlr.de/xsd/routes_file.xsd">
    <vType id="t10045.0_rain" accel="1.0" decel="4.0" maxSpeed="20" minGap="3.0" /><vehicle id="t10045.0" depart="0.00" fromTaz="214" toTaz="413" type="t10045.0_rain">
        <route edges="200001283 200001264 200001262 200001261 200001260 200014472 200001258 200001259 200001286 200001282 200001281 200013448 200001279 200002123 200002132 200013302 200002124 200083261 200080647 200080648 200060649 200060662 200060663 200060659 200062113 200062114 200062115 200062116 200062117 200062118 200062119 200062120 200062121 200062122 200062123 200062124 200062127 200062128 200062129 200062130 200062131 200062132 200061415 200061416 200071417 200071418 200071419 200071420 200071421 200071422 200071423 200071424 200071425 200071426 200071251 200071252 200071253 200071254 200071255 200075116 200002480 200007005 200007004 200002476 200071208 200071244 200071245 200002518 200002617 200002618 200014500" />
    </vehicle>
    <vType id="t10055.0_rain" accel="1.0" decel="4.0" maxSpeed="20" minGap="3.0" /><vehicle id="t10055.0" depart="0.00" fromTaz="214" toTaz="431" type="t10055.0_rain">
        <route edges="200001283 200001264 200001262 200001261 200001260 200014472 200001258 200001259 200001286 200001282 200001281 200013448 200001279 200002123 200002132 200013302 200002124 200083261 200080647 200080648 200060649 200060662 200060663 200060664 200001765 200001637 200001742 200001743 200001744 200061112" />
    </vehicle>
    <vType id="t10057.0_rain" accel="1.0" decel="4.0" maxSpeed="20" minGap="3.0" /><vehicle id="t10057.0" depart="0.00" fromTaz="214" toTaz="433" type="t10057.0_rain">
        <route edges="200001283 200001264 200001262 200001261 200001260 200014472 200001258 200001259 200001286 200001282 200001281 200013448 200001279 200002123 200002132 200013302 200002124 200083261 200080647 200080648 200060649 200060662 200062661 200064849 200064848 200061267" />
    </vehicle>
    <vType id="t10134.0_rain" accel="1.0" decel="4.0" maxSpeed="20" minGap="3.0" /><vehicle id="t10134.0" depart="0.00" fromTaz="214" toTaz="615" type="t10134.0_rain">
        <route edges="200001283 200001264 200001262 200001261 200001260 200014472 200001258 200001259 200001286 200001282 200001281 200013448 200001279 200002123 200002132 200013302 200002124 200083261 200080647 200080648 200060649 200060662 200060663 200060664 200001765 200001637 200001742 200001743 200001746 200001741 200001759 200001613 200001649 200001652 200001616 200001623 200013429 200001620 200001738 200001739 200001740 200001735 200002748 200002749 200002745 200002747 200002746 200002645 200002646 200002671 200002647 200002648 200002649 200002650 200002651" />
    </vehicle>
    <vType id="t10159.0_rain" accel="1.0" decel="4.0" maxSpeed="20" minGap="3.0" /><vehicle id="t10159.0" depart="0.00" fromTaz="215" toTaz="177" type="t10159.0_rain">
        <route edges="200001288 200001294 200001341 200001340 200001338 200001334 200001327 200001324 200001302 200001284 200001257 200001253 200001250 200001243" />
    </vehicle>
    <vType id="t10253.0_rain" accel="1.0" decel="4.0" maxSpeed="20" minGap="3.0" /><vehicle id="t10253.0" depart="0.00" fromTaz="215" toTaz="316" type="t10253.0_rain">
        <route edges="200001288 200001294 200001341 200001340 200001355 200001360 200001376 200001383" />
    </vehicle>
    <vType id="t1031.0_rain" accel="1.0" decel="4.0" maxSpeed="20" minGap="3.0" /><vehicle id="t1031.0" depart="0.00" fromTaz="167" toTaz="396" type="t1031.0_rain">
        <route edges="200053018 200053019 200053020 200053021 200800205 200093169 200093170 200093171 200092428 200093070 200093071 200075134 200075137 200075139 200071258 200071259 200071260 200071261 200071262 200071263 200071264 200061265 200063744 200063745 200063746 200063747 200063748 200063749 200063751 200063752 200063753 200063754 200061266 200063135 200061302" />
    </vehicle>
    <vType id="t10356.0_rain" accel="1.0" decel="4.0" maxSpeed="20" minGap="3.0" /><vehicle id="t10356.0" depart="0.00" fromTaz="215" toTaz="464" type="t10356.0_rain">
        <route edges="200014250 200014254 200001380 200001401 200001524 200001408 200001410 200001416 200001427 200001433 200001437 200001452 200001457 200062111 200060662 200060663 200001678 200001680 200001681 200000018 200000017 200001683 200001710 200001711 200001712 200001713 200001684 200001719 200001686" />
    </vehicle>
    <vType id="t10399.0_rain" accel="1.0" decel="4.0" maxSpeed="20" minGap="3.0" /><vehicle id="t10399.0" depart="0.00" fromTaz="215" toTaz="532" type="t10399.0_rain">
        <route edges="200014250 200014254 200001380 200001401 200001524 200001408 200001410 200001416 200001427 200001433 200001437 200001452 200001457 200062111 200060662 200060663 200001678 200001680 200001681 200000018 200000017 200001683 200001710 200001711 200001712 200001713 200001684 200001719 200001686 200001687 200001720 200001721 200001688 200001718 200001722 200001588 200001791 200001589 200001724 200007028 200001530 200025155" />
    </vehicle>
    <vType id="t10419.0_rain" accel="1.0" decel="4.0" maxSpeed="20" minGap="3.0" /><vehicle id="t10419.0" depart="0.00" fromTaz="215" toTaz="617" type="t10419.0_rain">
        <route edges="200014250 200014254 200001380 200001401 200001524 200001408 200001410 200001416 200001427 200001433 200001437 200001452 200001457 200062111 200060662 200060663 200060664 200001765 200001637 200001742 200001743 200001746 200001741 200001759 200001613 200001649 200001652 200001616 200001623 200013429 200001620 200001738 200001739 200001740 200001735 200002748 200002749 200002745 200002747 200002746 200002645 200002646 200002671 200002647 200002648 200002649 200002650 200002651 200002652 200002660 200002653" />
    </vehicle>
    <vType id="t10420.0_rain" accel="1.0" decel="4.0" maxSpeed="20" minGap="3.0" /><vehicle id="t10420.0" depart="0.00" fromTaz="215" toTaz="618" type="t10420.0_rain">
        <route edges="200014250 200014254 200001380 200001401 200001524 200001408 200001410 200001416 200001427 200001433 200001437 200001452 200001457 200062111 200060662 200060663 200060664 200001765 200001637 200001742 200001743 200001746 200001741 200001759 200001613 200001649 200001652 200001616 200001623 200013429 200001620 200001738 200001739 200001740 200001735 200002748 200002749 200002745 200002747 200002746 200002645 200002646 200002671 200002647 200002648 200002649 200002650 200002651 200002652 200002660 200002653" />
    </vehicle>
    <vType id="t10423.0_rain" accel="1.0" decel="4.0" maxSpeed="20" minGap="3.0" /><vehicle id="t10423.0" depart="0.00" fromTaz="215" toTaz="648" type="t10423.0_rain">
        <route edges="200014250 200014254 200001380 200001401 200001524 200001408 200001410 200001416 200001427 200001433 200001437 200001452 200001457 200062111 200060662 200060663 200060664 200001765 200001637 200001742 200001743 200001746 200001741 200001759 200001613 200001649 200001652 200001616 200001623 200013429 200001620 200001738 200001739 200001740 200001735 200002748 200002749 200002745 200002747 200002746 200002645 200002646 200002671 200002647 200002648 200002649 200013426 200002678" />
    </vehicle>
    <vType id="t10456.0_rain" accel="1.0" decel="4.0" maxSpeed="20" minGap="3.0" /><vehicle id="t10456.0" depart="0.00" fromTaz="216" toTaz="193" type="t10456.0_rain">
        <route edges="200014472 200001258 200001259 200001286 200001282 200001281 200013448 200001269 200002108 200002103 200002095 200002087 200002083 200002077 200002078 200012053 200001941 200001942 200001930 200001934 200002194 200001120 200001123 200001134 200001138 200001139 200001140 200001141 200000782 200000631 200000630 200000629 200000627 200000628 200000006 200000786 200001206 200001203" />
    </vehicle>
    <vType id="t10465.0_rain" accel="1.0" decel="4.0" maxSpeed="20" minGap="3.0" /><vehicle id="t10465.0" depart="0.00" fromTaz="216" toTaz="203" type="t10465.0_rain">
        <route edges="200014472 200001258 200001259 200001286 200001282 200001281 200013448 200001279 200002123 200002132 200013302 200002124 200083261 200080647 200080648 200060649 200060662 200060663 200060659 200062113 200062114 200062115 200062116 200062117 200062118 200062119 200062120 200062121 200062122 200062123 200062124 200062127 200062128 200062129 200062130 200062131 200062132 200061415 200061416 200071417 200071418 200071419 200071420 200071421 200071422 200071423 200071424 200071425 200071426 200071251 200071252 200071253 200071201 200073098 200070722 200800202 200002502 200002402 200002408 200002409 200012030 200002412 200002263 200002264 200002552 200012057 200055124 200054332 200054331" />
    </vehicle>
    <vType id="t10667.0_rain" accel="1.0" decel="4.0" maxSpeed="20" minGap="3.0" /><vehicle id="t10667.0" depart="0.00" fromTaz="216" toTaz="501" type="t10667.0_rain">
        <route edges="200014472 200001258 200001259 200001286 200001282 200001281 200013448 200001279 200002123 200002132 200013302 200002124 200083261 200080647 200080648 200060649 200060662 200060663 200060664 200001765 200001637 200001742 200001743 200001746 200001741 200001759 200001613 200001649 200001652 200001616 200001623 200013429" />
    </vehicle>
    <vType id="t10711.0_rain" accel="1.0" decel="4.0" maxSpeed="20" minGap="3.0" /><vehicle id="t10711.0" depart="0.00" fromTaz="216" toTaz="638" type="t10711.0_rain">
        <route edges="200014472 200001258 200001259 200001286 200001282 200001281 200013448 200001279 200002123 200002132 200013302 200002124 200083261 200080647 200080648 200060649 200060662 200060663 200001678 200001680 200001681 200000018 200000017 200001683 200001710 200001711 200001712 200001713 200001684 200001719 200001686 200001687 200001720 200001721 200001688 200001718 200001722 200001588 200001791 200001589 200001724 200007028 200001528 200020476 200020477 200021947" />
    </vehicle>
    <vType id="t10749.0_rain" accel="1.0" decel="4.0" maxSpeed="20" minGap="3.0" /><vehicle id="t10749.0" depart="0.00" fromTaz="217" toTaz="194" type="t10749.0_rain">
        <route edges="200001286 200001282 200001281 200013448 200001269 200002108 200002103 200002095 200002087 200002083 200002077 200002078 200012053 200001941 200001942 200001930 200001934 200002194 200001120 200001123 200001134 200001138 200001139 200001140 200001141 200000782 200000631 200000630 200000629 200000627 200000628 200000006 200000786 200001206 200001203 200001023" />
    </vehicle>
    <vType id="t10752.0_rain" accel="1.0" decel="4.0" maxSpeed="20" minGap="3.0" /><vehicle id="t10752.0" depart="0.00" fromTaz="217" toTaz="197" type="t10752.0_rain">
        <route edges="200001286 200001282 200001281 200013448 200001269 200002108 200002103 200002095 200002087 200002083 200002077 200002078 200012053 200001941 200001942 200001930 200001934 200002194 200001120 200001123 200001134 200001138 200001139 200001140 200001141 200000782 200000631 200000630 200000629 200000627 200000628 200000006 200000626 200000625 200000623 200000620 200001106 200001085 200001051 200001055 200001060 200001061 200001070" />
    </vehicle>
    <vType id="t10753.0_rain" accel="1.0" decel="4.0" maxSpeed="20" minGap="3.0" /><vehicle id="t10753.0" depart="0.00" fromTaz="217" toTaz="199" type="t10753.0_rain">
        <route edges="200001286 200001282 200001281 200013448 200001279 200002123 200002132 200013302 200002124 200083261 200080647 200080648 200060649 200060662 200060663 200060659 200062113 200062114 200062115 200062116 200062117 200062118 200062119 200062120 200062121 200062122 200062123 200062124 200062127 200062128 200062129 200062130 200062131 200062132 200061415 200061416 200071417 200071418 200071419 200071420 200071421 200071422 200071423 200071424 200071425 200071426 200071251 200071252 200071253 200071201 200073098 200070722 200090723 200090724 200090725 200090726 200800206" />
    </vehicle>
    <vType id="t10787.0_rain" accel="1.0" decel="4.0" maxSpeed="20" minGap="3.0" /><vehicle id="t10787.0" depart="0.00" fromTaz="217" toTaz="246" type="t10787.0_rain">
        <route edges="200001272 200001271 200001267 200001274 200001288 200001294 200001341 200001340 200001355 200001360" />
    </vehicle>
    <vType id="t10838.0_rain" accel="1.0" decel="4.0" maxSpeed="20" minGap="3.0" /><vehicle id="t10838.0" depart="0.00" fromTaz="217" toTaz="320" type="t10838.0_rain">
        <route edges="200001286 200001282 200001281 200013448 200001279 200002123 200002132 200013302 200002124 200083261 200080647 200080648 200060649 200001465 200001463 200001442 200001441 200001439 200001436 200001424 200001397 200001395 200001392 200001387 200001431" />
    </vehicle>
    <vType id="t10873.0_rain" accel="1.0" decel="4.0" maxSpeed="20" minGap="3.0" /><vehicle id="t10873.0" depart="0.00" fromTaz="217" toTaz="364" type="t10873.0_rain">
        <route edges="200001286 200001282 200001281 200013448 200001279 200002123 200002132 200013302 200002124 200083261 200080647 200080648 200060649 200060662 200060663 200060659 200062113 200062114 200062115 200062116 200062117 200062118 200062119 200062120 200061296" />
    </vehicle>
    <vType id="t10953.0_rain" accel="1.0" decel="4.0" maxSpeed="20" minGap="3.0" /><vehicle id="t10953.0" depart="0.00" fromTaz="217" toTaz="493" type="t10953.0_rain">
        <route edges="200001272 200001271 200001267 200001274 200001288 200001294 200001341 200001340 200001355 200001360 200001376 200001383 200001417 200001485 200001490 200001500 200001513 200001516 200001519 200014204 200014232 200014230 200014231 200014206 200014217" />
    </vehicle>
    <vType id="t10967.0_rain" accel="1.0" decel="4.0" maxSpeed="20" minGap="3.0" /><vehicle id="t10967.0" depart="0.00" fromTaz="217" toTaz="509" type="t10967.0_rain">
        <route edges="200001286 200001282 200001281 200013448 200001279 200002123 200002132 200013302 200002124 200083261 200080647 200080648 200060649 200060662 200060663 200060664 200001765 200001637 200001742 200001743 200001746 200001741 200001759 200001613 200001649 200001652 200001616 200001623 200013429 200001620 200001738 200001739 200001740 200001735 200002748 200002749 200002751 200014305" />
    </vehicle>
    <vType id="t11000.0_rain" accel="1.0" decel="4.0" maxSpeed="20" minGap="3.0" /><vehicle id="t11000.0" depart="0.00" fromTaz="217" toTaz="615" type="t11000.0_rain">
        <route edges="200001286 200001282 200001281 200013448 200001279 200002123 200002132 200013302 200002124 200083261 200080647 200080648 200060649 200060662 200060663 200060664 200001765 200001637 200001742 200001743 200001746 200001741 200001759 200001613 200001649 200001652 200001616 200001623 200013429 200001620 200001738 200001739 200001740 200001735 200002748 200002749 200002745 200002747 200002746 200002645 200002646 200002671 200002647 200002648 200002649 200002650 200002651" />
    </vehicle>
    <vType id="t11016.0_rain" accel="1.0" decel="4.0" maxSpeed="20" minGap="3.0" /><vehicle id="t11016.0" depart="0.00" fromTaz="217" toTaz="686" type="t11016.0_rain">
        <route edges="200001286 200001282 200001281 200013448 200001279 200002123 200002132 200013302 200002124 200083261 200080647 200080648 200060649 200060662 200060663 200060664 200001765 200001637 200001742 200001743 200001746 200001741 200001759 200001613 200001649 200001652 200001616 200001623 200013429 200001620 200001738 200001739 200001740 200001735 200002748 200002749 200002745 200002747 200002746 200002645 200002646 200002671 200002647 200002648 200002649 200002650 200002708 200002682 200002683 200002694 200002684 200013428 200013424 200002719" />
    </vehicle>
    <vType id="t11025.0_rain" accel="1.0" decel="4.0" maxSpeed="20" minGap="3.0" /><vehicle id="t11025.0" depart="0.00" fromTaz="218" toTaz="168" type="t11025.0_rain">
        <route edges="200001286 200001282 200001281 200013448 200001279 200002123 200002132 200013302 200002124 200083261 200080647 200080648 200060649 200060662 200060663 200060659 200062113 200062114 200062115 200062116 200062117 200062118 200062119 200062120 200062121 200062122 200062123 200062124 200062127 200062128 200062129 200062130 200062131 200062132 200061415 200061416 200071417 200071418 200071419 200071420 200071421 200071422 200071423 200071424 200071425 200071426 200071251 200071252 200071253 200071201 200073098 200070722 200090723 200090724 200090725 200090726 200800206 200054813 200054812 200054811 200054810" />
    </vehicle>
    <vType id="t11036.0_rain" accel="1.0" decel="4.0" maxSpeed="20" minGap="3.0" /><vehicle id="t11036.0" depart="0.00" fromTaz="218" toTaz="187" type="t11036.0_rain">
        <route edges="200001286 200001282 200001281 200013448 200001269 200002108 200002103 200002095 200002087 200002083 200002077 200002078 200012053 200001938 200001943 200001944 200001882 200001925 200084974 200084978 200084979 200084975 200002209 200001958 200001959 200001948 200002068 200002071 200002197 200002072 200002093" />
    </vehicle>
    <vType id="t11043.0_rain" accel="1.0" decel="4.0" maxSpeed="20" minGap="3.0" /><vehicle id="t11043.0" depart="0.00" fromTaz="218" toTaz="196" type="t11043.0_rain">
        <route edges="200001286 200001282 200001281 200013448 200001269 200002108 200002103 200002095 200002087 200002083 200002077 200002078 200012053 200001941 200001942 200001930 200001934 200002194 200001120 200001123 200001134 200001138 200001139 200001140 200001141 200000782 200000631 200000630 200000629 200000627 200000628 200000006 200000626 200000625 200000623 200000620 200001106 200001085 200001051 200001055 200001060 200001061" />
    </vehicle>
    <vType id="t11102.0_rain" accel="1.0" decel="4.0" maxSpeed="20" minGap="3.0" /><vehicle id="t11102.0" depart="0.00" fromTaz="218" toTaz="285" type="t11102.0_rain">
        <route edges="200001297 200001277 200001276 200001272 200001271 200001267 200001274 200001288 200001294 200001341 200001340 200001338 200001353 200001354 200001345 200001333 200011005 200001283 200001264 200001262 200001261 200001260 200014470 200014466 200014451 200014441 200014419 200014444 200014250" />
    </vehicle>
    <vType id="t11147.0_rain" accel="1.0" decel="4.0" maxSpeed="20" minGap="3.0" /><vehicle id="t11147.0" depart="0.00" fromTaz="218" toTaz="339" type="t11147.0_rain">
        <route edges="200001286 200001282 200001281 200013448 200001279 200002123 200002132 200013302 200002124 200083261 200080647 200080648 200060649 200060662 200060663 200060659 200062113 200062114 200062115 200062116 200062117 200062118 200062119 200062120 200062121 200062122 200062123 200062124 200062127 200062128 200062129 200062130 200062131 200062132 200061415 200061416 200071417 200071418 200071419 200071420 200071421 200071422 200071423 200071424 200071425 200071426 200071251 200071252 200071253" />
    </vehicle>
    <vType id="t11154.0_rain" accel="1.0" decel="4.0" maxSpeed="20" minGap="3.0" /><vehicle id="t11154.0" depart="0.00" fromTaz="218" toTaz="352" type="t11154.0_rain">
        <route edges="200001286 200001282 200001281 200013448 200001279 200002123 200002132 200013302 200002124 200083261 200080647 200080648 200060649 200001465 200001463 200001442 200001441 200001439 200001436 200001424 200001397 200001395 200001392 200001387 200001431 200001443 200001447 200001479 200001489 200001508" />
    </vehicle>
    <vType id="t11160.0_rain" accel="1.0" decel="4.0" maxSpeed="20" minGap="3.0" /><vehicle id="t11160.0" depart="0.00" fromTaz="218" toTaz="360" type="t11160.0_rain">
        <route edges="200001286 200001282 200001281 200013448 200001279 200002123 200002132 200013302 200002124 200083261 200080647 200080648 200060649 200060662 200060663" />
    </vehicle>
    <vType id="t11166.0_rain" accel="1.0" decel="4.0" maxSpeed="20" minGap="3.0" /><vehicle id="t11166.0" depart="0.00" fromTaz="218" toTaz="366" type="t11166.0_rain">
        <route edges="200001286 200001282 200001281 200013448 200001279 200002123 200002132 200013302 200002124 200083261 200080647 200080648 200060649 200060662 200060663 200060659 200062113 200062114 200062115 200062116 200062117 200062118 200062119 200062120 200062121 200062122 200062123 200062124 200062127" />
    </vehicle>
    <vType id="t1118.0_rain" accel="1.0" decel="4.0" maxSpeed="20" minGap="3.0" /><vehicle id="t1118.0" depart="0.00" fromTaz="167" toTaz="532" type="t1118.0_rain">
        <route edges="200053018 200053019 200053020 200053021 200800205 200093169 200093170 200093171 200092428 200093070 200093071 200075134 200075137 200075139 200071258 200071259 200071260 200071261 200071262 200071263 200071264 200061265 200063744 200063745 200063746 200063747 200063748 200063749 200063751 200063752 200063753 200063754 200063757 200061428 200061429 200061430 200060662 200060663 200001678 200001680 200001681 200000018 200000017 200001683 200001710 200001711 200001712 200001713 200001684 200001719 200001686 200001687 200001720 200001721 200001688 200001718 200001722 200001588 200001791 200001589 200001724 200007028 200001530 200025155" />
    </vehicle>
    <vType id="t11308.0_rain" accel="1.0" decel="4.0" maxSpeed="20" minGap="3.0" /><vehicle id="t11308.0" depart="0.00" fromTaz="218" toTaz="707" type="t11308.0_rain">
        <route edges="200001286 200001282 200001281 200013448 200001279 200002123 200002132 200013302 200002124 200083261 200080647 200080648 200060649 200060662 200060663 200001678 200001680 200001681 200000018 200000017 200001683 200001710 200001711 200001712 200001713 200001684 200001719 200001686 200001687 200001720 200001721 200001688 200001718 200001722 200001588 200001791 200001589 200001724 200007028 200001528 200020476 200020477 200021947" />
    </vehicle>
    <vType id="t11319.0_rain" accel="1.0" decel="4.0" maxSpeed="20" minGap="3.0" /><vehicle id="t11319.0" depart="0.00" fromTaz="219" toTaz="178" type="t11319.0_rain">
        <route edges="200001297 200001277 200001276 200001272 200001271 200001267 200001274 200001288 200001294 200001341 200001340 200001338 200001353 200001354 200001345 200001333 200011005 200001283 200001264 200001262 200001261 200001260 200014470 200014466 200014451 200014441 200014419 200014444 200014250 200014253 200014256 200014258 200014262 200014264 200014269 200014270 200014273 200014443 200014436" />
    </vehicle>
    <vType id="t11327.0_rain" accel="1.0" decel="4.0" maxSpeed="20" minGap="3.0" /><vehicle id="t11327.0" depart="0.00" fromTaz="219" toTaz="186" type="t11327.0_rain">
        <route edges="200001282 200001281 200013448 200001269 200002107 200002111" />
    </vehicle>
    <vType id="t11336.0_rain" accel="1.0" decel="4.0" maxSpeed="20" minGap="3.0" /><vehicle id="t11336.0" depart="0.00" fromTaz="219" toTaz="197" type="t11336.0_rain">
        <route edges="200001282 200001281 200013448 200001269 200002108 200002103 200002095 200002087 200002083 200002077 200002078 200012053 200001941 200001942 200001930 200001934 200002194 200001120 200001123 200001134 200001138 200001139 200001140 200001141 200000782 200000631 200000630 200000629 200000627 200000628 200000006 200000626 200000625 200000623 200000620 200001106 200001085 200001051 200001055 200001060 200001061 200001070" />
    </vehicle>
    <vType id="t11341.0_rain" accel="1.0" decel="4.0" maxSpeed="20" minGap="3.0" /><vehicle id="t11341.0" depart="0.00" fromTaz="219" toTaz="203" type="t11341.0_rain">
        <route edges="200001282 200001281 200013448 200001279 200002123 200002132 200013302 200002124 200083261 200080647 200080648 200060649 200060662 200060663 200060659 200062113 200062114 200062115 200062116 200062117 200062118 200062119 200062120 200062121 200062122 200062123 200062124 200062127 200062128 200062129 200062130 200062131 200062132 200061415 200061416 200071417 200071418 200071419 200071420 200071421 200071422 200071423 200071424 200071425 200071426 200071251 200071252 200071253 200071201 200073098 200070722 200800202 200002502 200002402 200002408 200002409 200012030 200002412 200002263 200002264 200002552 200012057 200055124 200054332 200054331" />
    </vehicle>
    <vType id="t11361.0_rain" accel="1.0" decel="4.0" maxSpeed="20" minGap="3.0" /><vehicle id="t11361.0" depart="0.00" fromTaz="219" toTaz="230" type="t11361.0_rain">
        <route edges="200001282 200001281 200013448 200001269 200002108 200002103 200002095 200002087 200002083 200002077 200002078 200012053 200001941 200001942 200001930 200001934 200002194 200001120 200001123 200001134 200001138 200001139 200001140 200001141 200000782 200000631 200000630 200000629 200000627 200000628 200000006 200000626 200000625 200000623 200000622" />
    </vehicle>
    <vType id="t11380.0_rain" accel="1.0" decel="4.0" maxSpeed="20" minGap="3.0" /><vehicle id="t11380.0" depart="0.00" fromTaz="219" toTaz="262" type="t11380.0_rain">
        <route edges="200001282 200001281 200013448 200001269 200002108 200002103 200002095 200002087 200002083 200002077 200002078 200012053 200001941 200001942 200001930 200001934 200002194 200001120 200001123 200001134 200001138 200001139 200001208 200084989" />
    </vehicle>
    <vType id="t11387.0_rain" accel="1.0" decel="4.0" maxSpeed="20" minGap="3.0" /><vehicle id="t11387.0" depart="0.00" fromTaz="219" toTaz="270" type="t11387.0_rain">
        <route edges="200001282 200001281 200013448 200001279 200002123 200002132 200013302 200002124 200083261 200080647 200080648 200060649 200060662 200060663 200060659 200062113 200062114 200062115 200062116 200062117 200062118 200062119 200062120 200062121 200062122 200062123 200062124 200062127 200062128 200062129 200062130 200062131 200062132 200061415 200061416 200071417 200071418 200071419 200071420 200071421 200071422 200071423 200071424 200071425 200071426 200071251 200071252 200071253 200071201 200073098 200070722 200800202 200002502 200002402 200002403" />
    </vehicle>
    <vType id="t11420.0_rain" accel="1.0" decel="4.0" maxSpeed="20" minGap="3.0" /><vehicle id="t11420.0" depart="0.00" fromTaz="219" toTaz="318" type="t11420.0_rain">
        <route edges="200001282 200001281 200013448 200001279 200002123 200002132 200013302 200002124 200083261 200080647 200080648 200060649 200001465 200001463 200001442 200001441 200001439 200001436 200001424 200001397 200001395 200001392 200001387 200001431 200001443 200001447 200001479" />
    </vehicle>
    <vType id="t11430.0_rain" accel="1.0" decel="4.0" maxSpeed="20" minGap="3.0" /><vehicle id="t11430.0" depart="0.00" fromTaz="219" toTaz="328" type="t11430.0_rain">
        <route edges="200001282 200001281 200013448 200001279 200002123 200002132 200013302 200002124 200083261 200080647 200080648 200060649 200060662 200060663 200060659 200062113 200062114 200062115 200062116 200061304 200060703" />
    </vehicle>
    <vType id="t11514.0_rain" accel="1.0" decel="4.0" maxSpeed="20" minGap="3.0" /><vehicle id="t11514.0" depart="0.00" fromTaz="219" toTaz="445" type="t11514.0_rain">
        <route edges="200001282 200001281 200013448 200001279 200002123 200002132 200013302 200002124 200083261 200080647 200080648 200060649 200060662 200060663 200060659 200062113 200062114 200062115 200062116 200062117 200062118 200062119 200062120 200062121 200062122 200062123 200062124 200062127 200062128 200062129 200062130 200062131 200062132 200061415 200061416 200071417 200071418 200071419 200071420 200071421 200071422 200071423 200071424 200071425 200071426 200071251 200071252 200071253 200071254 200071255 200075116 200002480 200007005 200007004 200002476 200071208 200071244 200071245 200002518 200002519 200002562 200002323" />
    </vehicle>
    <vType id="t11532.0_rain" accel="1.0" decel="4.0" maxSpeed="20" minGap="3.0" /><vehicle id="t11532.0" depart="0.00" fromTaz="219" toTaz="483" type="t11532.0_rain">
        <route edges="200001282 200001281 200013448 200001279 200002123 200002132 200013302 200002124 200083261 200080647 200080648 200060649 200060662 200060663 200060659 200062113 200062114 200062115 200062116 200062117 200062118 200062119 200062120 200062121 200062122 200062123 200062124 200062127 200062128 200062129 200062130 200062131 200062132 200061415 200061416 200071417 200071418 200071419 200071420 200071421 200071422 200071423 200071424 200071425 200071426 200071251 200071252 200071253 200071254 200071255 200075116 200002480 200007005 200007004 200002476 200071208 200071244 200071245 200002518 200002519 200002562 200002323 200800201 200002295 200002623 200002296 200002297 200002299 200035108 200034626 200034625 200032210" />
    </vehicle>
    <vType id="t11548.0_rain" accel="1.0" decel="4.0" maxSpeed="20" minGap="3.0" /><vehicle id="t11548.0" depart="0.00" fromTaz="219" toTaz="506" type="t11548.0_rain">
        <route edges="200001282 200001281 200013448 200001279 200002123 200002132 200013302 200002124 200083261 200080647 200080648 200060649 200060662 200060663 200060664 200001765 200001637 200001742 200001743 200001746 200001741 200001759 200001613 200001649 200001652 200001616 200001623 200013429 200001620 200001738 200001739 200001740 200001735 200002748 200002749 200002751 200014305" />
    </vehicle>
    <vType id="t11662.0_rain" accel="1.0" decel="4.0" maxSpeed="20" minGap="3.0" /><vehicle id="t11662.0" depart="0.00" fromTaz="220" toTaz="239" type="t11662.0_rain">
        <route edges="200001279 200002123 200002132 200013302 200002124 200083261 200080647 200080648 200060649 200060662 200060663 200060659 200062113 200062114 200062115 200062116 200062117 200062118 200062119 200062120 200062121 200062122 200062123 200062124 200062127 200062128 200062129 200062130 200062131 200062132 200061415 200061416 200071417 200071418 200071419 200071420 200071421 200071422 200071423 200071424 200071425 200071426 200071251 200071252 200071253 200071201 200073098 200070722 200800202 200002502 200002402 200002408 200002410 200002416 200002417 200002282 200002284 200002285 200002286 200002289" />
    </vehicle>