<routes xmlns:xsi="http://www.w3.org/2001/XMLSchema-instance" xsi:noNamespaceSchemaLocation="http://sumo.dlr.de/xsd/routes_file.xsd">
    <vehicle id="t1.0" depart="0.00" fromTaz="142" toTaz="143">
        <route edges="200014438" />
    </vehicle>
    <vehicle id="t10034.0" depart="0.00" fromTaz="214" toTaz="402">
        <route edges="200001283 200001264 200001262 200001261 200001260 200014472 200001258 200001259 200001286 200001282 200001281 200013448 200001279 200002123 200002132 200013302 200002124 200083261 200080647 200080648 200060649 200060662 200060663 200060659 200062113 200062114 200062115 200062116 200062117 200062118 200062119 200062120 200062121 200062122 200062123 200062124 200061409 200064845" />
    </vehicle>
    <vehicle id="t10037.0" depart="0.00" fromTaz="214" toTaz="405">
        <route edges="200001283 200001264 200001262 200001261 200001260 200014472 200001258 200001259 200001286 200001282 200001281 200013448 200001279 200002123 200002132 200013302 200002124 200083261 200080647 200080648 200060649 200060662 200060663 200060659 200062113 200062114 200062115 200062116 200062117 200062118 200062119 200062120 200062121 200062122 200062123 200062124 200062127 200062128 200062129 200062130 200062131 200062132 200061368 200061369 200063272 200065004 200065006 200073273" />
    </vehicle>
    <vehicle id="t10043.0" depart="0.00" fromTaz="214" toTaz="411">
        <route edges="200001283 200001264 200001262 200001261 200001260 200014472 200001258 200001259 200001286 200001282 200001281 200013448 200001279 200002123 200002132 200013302 200002124 200083261 200080647 200080648 200060649 200060662 200060663 200060659 200062113 200062114 200062115 200062116 200062117 200062118 200062119 200062120 200062121 200062122 200062123 200062124 200062127 200062128 200062129 200062130 200062131 200062132 200061415 200061416 200071417 200071418 200071419 200071420 200071421 200071422 200071423 200071424 200071425 200071426 200071251 200071252 200071253 200071254 200071255 200075116 200002480 200007005 200007004 200002476 200071208 200071244 200071245 200002518 200002617 200002618" />
    </vehicle>
    <vehicle id="t10053.0" depart="0.00" fromTaz="214" toTaz="429">
        <route edges="200001283 200001264 200001262 200001261 200001260 200014472 200001258 200001259 200001286 200001282 200001281 200013448 200001279 200002123 200002132 200013302 200002124 200083261 200080647 200080648 200060649 200060662 200060663 200001678 200001680 200001681 200000018 200000017 200001683 200001710 200001711" />
    </vehicle>
    <vehicle id="t10069.0" depart="0.00" fromTaz="214" toTaz="459">
        <route edges="200001341 200001340 200001355 200001360 200001376 200001383 200001417 200001485 200001490 200001500 200001513 200001516 200001519 200014204 200014211 200014215" />
    </vehicle>
    <vehicle id="t10077.0" depart="0.00" fromTaz="214" toTaz="470">
        <route edges="200001283 200001264 200001262 200001261 200001260 200014472 200001258 200001259 200001286 200001282 200001281 200013448 200001279 200002123 200002132 200013302 200002124 200083261 200080647 200080648 200060649 200060662 200060663 200060659 200062113 200062114 200062115 200062116 200062117 200062118 200062119 200062120 200062121 200062122 200062123 200062124 200062127 200062128 200062129 200062130 200062131 200062132 200063744 200063745 200063746 200061286 200064019 200061324 200063132 200000275" />
    </vehicle>
    <vehicle id="t10088.0" depart="0.00" fromTaz="214" toTaz="494">
        <route edges="200001341 200001340 200001355 200001360 200001376 200001383 200001417 200001485 200001490 200001500 200001513 200001516 200001519 200014204 200014211 200014215" />
    </vehicle>
    <vehicle id="t10092.0" depart="0.00" fromTaz="214" toTaz="499">
        <route edges="200001283 200001264 200001262 200001261 200001260 200014472 200001258 200001259 200001286 200001282 200001281 200013448 200001279 200002123 200002132 200013302 200002124 200083261 200080647 200080648 200060649 200060662 200060663 200060664 200001765 200001637 200001742 200001743 200001746 200001741 200001759 200001613 200001649 200001657 200001610 200001698 200001769" />
    </vehicle>
    <vehicle id="t10119.0" depart="0.00" fromTaz="214" toTaz="538">
        <route edges="200001283 200001264 200001262 200001261 200001260 200014472 200001258 200001259 200001286 200001282 200001281 200013448 200001279 200002123 200002132 200013302 200002124 200083261 200080647 200080648 200060649 200060662 200060663 200060664 200001765 200001637 200001742 200001743 200001746 200001741 200001759 200001613 200001649 200001652 200001616 200001623 200013429 200001620 200001738" />
    </vehicle>
    <vehicle id="t10121.0" depart="0.00" fromTaz="214" toTaz="540">
        <route edges="200001283 200001264 200001262 200001261 200001260 200014472 200001258 200001259 200001286 200001282 200001281 200013448 200001279 200002123 200002132 200013302 200002124 200083261 200080647 200080648 200060649 200060662 200060663 200060664 200001765 200001637 200001742 200001743 200001746 200001741 200001759 200001613 200001649 200001652 200001616 200001623 200013429 200001620 200001738 200001739 200001740 200001735 200002748 200002749" />
    </vehicle>
    <vehicle id="t10132.0" depart="0.00" fromTaz="214" toTaz="613">
        <route edges="200001283 200001264 200001262 200001261 200001260 200014472 200001258 200001259 200001286 200001282 200001281 200013448 200001279 200002123 200002132 200013302 200002124 200083261 200080647 200080648 200060649 200060662 200060663 200060664 200001765 200001637 200001742 200001743 200001746 200001741 200001759 200001613 200001649 200001652 200001616 200001623 200013429 200001620 200001738 200001739 200001740 200001735 200002748 200002749 200002745 200002747 200002746 200002645 200002646 200002671 200002647 200002648 200002649 200002650" />
    </vehicle>
    <vehicle id="t10151.0" depart="0.00" fromTaz="214" toTaz="707">
        <route edges="200001283 200001264 200001262 200001261 200001260 200014472 200001258 200001259 200001286 200001282 200001281 200013448 200001279 200002123 200002132 200013302 200002124 200083261 200080647 200080648 200060649 200060662 200060663 200001678 200001680 200001681 200000018 200000017 200001683 200001710 200001711 200001712 200001713 200001684 200001719 200001686 200001687 200001720 200001721 200001688 200001718 200001722 200001588 200001791 200001589 200001724 200007028 200001528 200020476 200020477 200021947" />
    </vehicle>
    <vehicle id="t10160.0" depart="0.00" fromTaz="215" toTaz="178">
        <route edges="200014443 200014436" />
    </vehicle>
    <vehicle id="t10169.0" depart="0.00" fromTaz="215" toTaz="188">
        <route edges="200014250 200014254 200001380 200001401 200001524 200001408 200001410 200001416 200001427 200001433 200001437 200001452 200001457 200062111 200062113 200062114 200062115 200062116 200061304 200060703 200060704 200061164 200084992 200081165 200002206 200002062 200002081 200002202 200002082" />
    </vehicle>
    <vehicle id="t10173.0" depart="0.00" fromTaz="215" toTaz="194">
        <route edges="200014250 200014254 200001380 200001401 200001524 200001408 200001410 200001416 200001427 200001433 200001437 200001452 200001457 200062111 200062113 200062114 200062115 200062116 200062117 200062118 200062119 200062120 200062121 200062122 200062123 200062124 200062127 200062128 200062129 200062130 200062131 200062132 200062092 200062094 200082095 200082096 200082097 200082098 200082099 200082100 200082101 200000660 200000800 200000627 200000628 200000006 200000786 200001206 200001203 200001023" />
    </vehicle>
    <vehicle id="t1018.0" depart="0.00" fromTaz="167" toTaz="373">
        <route edges="200053018 200053019 200053020 200053021 200800205 200093169 200093170 200093171 200092428 200093070 200093071 200075134 200075137 200075139 200071249" />
    </vehicle>
    <vehicle id="t10189.0" depart="0.00" fromTaz="215" toTaz="220">
        <route edges="200001260 200014472 200001258 200001259 200001286 200001282 200001281" />
    </vehicle>
    <vehicle id="t10223.0" depart="0.00" fromTaz="215" toTaz="270">
        <route edges="200014250 200014254 200001380 200001401 200001524 200001408 200001410 200001416 200001427 200001433 200001437 200001452 200001457 200062111 200062113 200062114 200062115 200062116 200062117 200062118 200062119 200062120 200062121 200062122 200062123 200062124 200062127 200062128 200062129 200062130 200062131 200062132 200061415 200061416 200071417 200071418 200071419 200071420 200071421 200071422 200071423 200071424 200071425 200071426 200071251 200071252 200071253 200071201 200073098 200070722 200800202 200002502 200002402 200002403" />
    </vehicle>
    <vehicle id="t10224.0" depart="0.00" fromTaz="215" toTaz="271">
        <route edges="200014250 200014254 200001380 200001401 200001524 200001408 200001410 200001416 200001427 200001433 200001437 200001452 200001457 200062111 200062113 200062114 200062115 200062116 200062117 200062118 200062119 200062120 200062121 200062122 200062123 200062124 200062127 200062128 200062129 200062130 200062131 200062132 200061415 200061416 200071417 200071418 200071419 200071420 200071421 200071422 200071423 200071424 200071425 200071426 200071251 200071252 200071253 200071201 200073098 200070722 200800202 200002502 200002402 200002408 200002409" />
    </vehicle>
    <vehicle id="t10240.0" depart="0.00" fromTaz="215" toTaz="295">
        <route edges="200014250 200014254 200001380 200001401 200001524 200001408 200001410 200001416 200001427 200001433 200001437 200001452 200001457 200062111 200062113 200062114 200062115 200062116 200062117 200062118 200062119 200062120 200062121 200061290 200061273 200063520 200083522 200082652" />
    </vehicle>
    <vehicle id="t10267.0" depart="0.00" fromTaz="215" toTaz="331">
        <route edges="200014250 200014254 200001380 200001401 200001524 200001408 200001410 200001416 200001427 200001433 200001437 200001452 200001457 200062111 200062113 200062114 200062115 200062116 200062117 200062118 200062119 200062120 200062121 200061290 200061273 200063520 200082263" />
    </vehicle>
    <vehicle id="t10292.0" depart="0.00" fromTaz="215" toTaz="366">
        <route edges="200014250 200014254 200001380 200001401 200001524 200001408 200001410 200001416 200001427 200001433 200001437 200001452 200001457 200062111 200062113 200062114 200062115 200062116 200062117 200062118 200062119 200062120 200062121 200062122 200062123 200062124 200062127" />
    </vehicle>
    <vehicle id="t10295.0" depart="0.00" fromTaz="215" toTaz="369">
        <route edges="200014250 200014254 200001380 200001401 200001524 200001408 200001410 200001416 200001427 200001433 200001437 200001452 200001457 200062111 200062113 200062114 200062115 200062116 200062117 200062118 200062119 200062120 200062121 200062122 200062123 200062124 200062127 200062128 200062129 200062130 200062131 200062132 200061415 200061416 200071417" />
    </vehicle>
    <vehicle id="t1030.0" depart="0.00" fromTaz="167" toTaz="395">
        <route edges="200053018 200053019 200053020 200053021 200800205 200093169 200093170 200093171 200092428 200093070 200093071 200075134 200075137 200075139 200071258 200071259 200071260 200071261 200071262 200071263 200071264 200061265 200063744 200063745 200063746 200063747 200063748 200063749 200063751 200063752 200063753 200063754 200063757 200061428 200061429 200061430 200060662 200060663 200060664" />
    </vehicle>
    <vehicle id="t10312.0" depart="0.00" fromTaz="215" toTaz="396">
        <route edges="200014250 200014254 200001380 200001401 200001524 200001408 200001410 200001416 200001427 200001433 200001437 200001452 200001457 200062111 200060662 200062661 200064849 200061302" />
    </vehicle>
    <vehicle id="t10327.0" depart="0.00" fromTaz="215" toTaz="412">
        <route edges="200014250 200014254 200001380 200001401 200001524 200001408 200001410 200001416 200001427 200001433 200001437 200001452 200001457 200062111 200062113 200062114 200062115 200062116 200062117 200062118 200062119 200062120 200062121 200062122 200062123 200062124 200062127 200062128 200062129 200062130 200062131 200062132 200061415 200061416 200071417 200071418 200071419 200071420 200071421 200071422 200071423 200071424 200071425 200071426 200071251 200071252 200071253 200071254 200071255 200075116 200002480 200007005 200007004 200002476 200071208 200071244 200071245 200002518 200002617 200002618 200014500" />
    </vehicle>
    <vehicle id="t10353.0" depart="0.00" fromTaz="215" toTaz="460">
        <route edges="200014250 200014253 200014256 200014257 200014275 200014261" />
    </vehicle>
    <vehicle id="t10361.0" depart="0.00" fromTaz="215" toTaz="475">
        <route edges="200014250 200014254 200001380 200001401 200001524 200001408 200001410 200001416 200001427 200001433 200001437 200001452 200001457 200062111 200060662 200060663 200060664 200001765 200001637 200001742 200001743 200001746 200001741 200001759 200001613 200001649 200001652 200001616 200001623 200013429 200001620 200001738 200001739 200001740 200001735 200002748 200002749 200002751 200014305 200014302" />
    </vehicle>
    <vehicle id="t10375.0" depart="0.00" fromTaz="215" toTaz="499">
        <route edges="200014250 200014254 200001380 200001401 200001524 200001408 200001410 200001416 200001427 200001433 200001437 200001452 200001457 200062111 200060662 200060663 200060664 200001765 200001637 200001742 200001743 200001746 200001741 200001759 200001613 200001649 200001657 200001610 200001698 200001769" />
    </vehicle>
    <vehicle id="t1039.0" depart="0.00" fromTaz="167" toTaz="405">
        <route edges="200053018 200053019 200053020 200053021 200800205 200093169 200093170 200093171 200092428 200093070 200093071 200075134 200075137 200075139 200071258 200071259 200071260 200071261 200071262 200071313 200073450 200074894 200074360 200073273" />
    </vehicle>
    <vehicle id="t104.0" depart="0.00" fromTaz="142" toTaz="318">
        <route edges="200014438 200014439 200014447 200014444 200014250 200014254 200001380 200001401 200001524 200001408 200001410 200001416 200001427 200001433 200001437 200001452 200001457 200062111 200001465 200001463 200001442 200001441 200001439 200001436 200001424 200001397 200001395 200001392 200001387 200001431 200001443 200001447 200001479" />
    </vehicle>
    <vehicle id="t1042.0" depart="0.00" fromTaz="167" toTaz="408">
        <route edges="200053018 200053019 200053020 200053021 200800205 200093169 200093170 200093171 200092428 200093070 200093071 200075134 200075137 200075139 200071249 200074314 200071181" />
    </vehicle>
    <vehicle id="t10430.0" depart="0.00" fromTaz="215" toTaz="683">
        <route edges="200014250 200014254 200001380 200001401 200001524 200001408 200001410 200001416 200001427 200001433 200001437 200001452 200001457 200062111 200060662 200060663 200060664 200001765 200001637 200001742 200001743 200001746 200001741 200001759 200001613 200001649 200001652 200001616 200001623 200013429 200001620 200001738 200001739 200001740 200001735 200002748 200002749 200002745 200002747 200002746 200002645 200002646 200002671 200002647 200002648 200002649 200013426 200002678 200002679 200002701" />
    </vehicle>
    <vehicle id="t10455.0" depart="0.00" fromTaz="216" toTaz="192">
        <route edges="200014472 200001258 200001259 200001286 200001282 200001281 200013448 200001269 200002108 200002103 200002095 200002087 200002083 200002077 200002078 200012053 200001941 200001942 200001930 200001934 200002194 200001120 200001123 200001134 200001138 200001139 200001208 200084989 200084990 200001207 200001210" />
    </vehicle>
    <vehicle id="t10483.0" depart="0.00" fromTaz="216" toTaz="228">
        <route edges="200014472 200001258 200001259 200001286 200001282 200001281 200013448 200001269 200002108 200002103 200002095 200002087 200002083 200002077 200002078 200012053 200001941 200001942 200001930 200001934 200002194 200001120 200001123 200001134 200001138 200001139 200001140 200001141 200000782 200000631" />
    </vehicle>
    <vehicle id="t10498.0" depart="0.00" fromTaz="216" toTaz="256">
        <route edges="200014472 200001258 200001259 200001286 200001282 200001281 200013448 200001279 200002123 200002132 200013302 200002124" />
    </vehicle>
    <vehicle id="t10505.0" depart="0.00" fromTaz="216" toTaz="264">
        <route edges="200014472 200001258 200001259 200001286 200001282 200001281 200013448 200001269 200002108 200002103 200002095 200002087 200002083 200002077 200002078 200012053 200001941 200001942 200001930 200001934 200002194 200001120 200001123 200001134 200001138 200001139 200001140 200001141 200000782 200000631 200000630 200000629 200000657 200000658 200082253 200084344 200094343" />
    </vehicle>
    <vehicle id="t10513.0" depart="0.00" fromTaz="216" toTaz="273">
        <route edges="200014472 200001258 200001259 200001286 200001282 200001281 200013448 200001279 200002123 200002132 200013302 200002124 200083261 200080647 200080648 200060649 200060662 200060663 200060659 200062113 200062114 200062115 200062116 200062117 200062118 200062119 200062120 200062121 200062122 200062123 200062124 200062127 200062128 200062129 200062130 200062131 200062132 200061415 200061416 200071417 200071418 200071419 200071420 200071421 200071422 200071423 200071424 200071425 200071426 200071251 200071252 200071253 200071201 200073098 200070722 200800202 200002507 200002509 200002432 200002433 200002438 200002440" />
    </vehicle>
    <vehicle id="t10520.0" depart="0.00" fromTaz="216" toTaz="287">
        <route edges="200014470 200014466 200014451 200014441 200014419 200014444 200014250 200014254 200001380" />
    </vehicle>
    <vehicle id="t10538.0" depart="0.00" fromTaz="216" toTaz="307">
        <route edges="200014472 200001258 200001259 200001286 200001282 200001281 200013448 200001279 200002123 200002132 200013302 200002124 200083261 200080647 200080648 200060649 200060662 200060663 200060659 200062113 200062114 200062115 200062116 200062117 200062118 200062119 200062120 200062121 200062122 200062123 200062124 200062127 200062128 200062129 200062130 200062131 200062132 200061415 200061416 200071417 200071418 200071419 200071420 200071421 200071422 200071423 200071424 200071425 200071426 200071251 200071252 200071253 200071201 200073098 200070722 200800202 200002502 200002487 200002488 200002426 200002634" />
    </vehicle>
    <vehicle id="t10553.0" depart="0.00" fromTaz="216" toTaz="328">
        <route edges="200014472 200001258 200001259 200001286 200001282 200001281 200013448 200001279 200002123 200002132 200013302 200002124 200083261 200080647 200080648 200060649 200060662 200060663 200060659 200062113 200062114 200062115 200062116 200061304 200060703" />
    </vehicle>
    <vehicle id="t10555.0" depart="0.00" fromTaz="216" toTaz="331">
        <route edges="200014472 200001258 200001259 200001286 200001282 200001281 200013448 200001279 200002123 200002132 200013302 200002124 200083261 200080647 200080648 200060649 200060662 200060663 200060659 200062113 200062114 200062115 200062116 200062117 200062118 200062119 200062120 200062121 200061290 200061273 200063520 200082263" />
    </vehicle>
    <vehicle id="t10561.0" depart="0.00" fromTaz="216" toTaz="337">
        <route edges="200014472 200001258 200001259 200001286 200001282 200001281 200013448 200001279 200002123 200002132 200013302 200002124 200083261 200080647 200080648 200060649 200060662 200060663 200060659 200062113 200062114 200062115 200062116 200062117 200062118 200062119 200062120 200062121 200062122 200062123 200062124 200062127 200062128 200062129 200062130 200062131 200062132 200061415 200061416 200071417 200071418 200071419 200071420 200071421 200071422 200071423 200071424 200071425" />
    </vehicle>
    <vehicle id="t10584.0" depart="0.00" fromTaz="216" toTaz="368">
        <route edges="200014472 200001258 200001259 200001286 200001282 200001281 200013448 200001279 200002123 200002132 200013302 200002124 200083261 200080647 200080648 200060649 200060662 200060663 200060659 200062113 200062114 200062115 200062116 200062117 200062118 200062119 200062120 200062121 200062122 200062123 200062124 200062127 200062128 200062129 200062130 200062131" />
    </vehicle>
    <vehicle id="t10594.0" depart="0.00" fromTaz="216" toTaz="378">
        <route edges="200014472 200001258 200001259 200001286 200001282 200001281 200013448 200001279 200002123 200002132 200013302 200002124 200083261 200080647 200080648 200060649 200060662 200060663 200060659 200062113 200062114 200062115 200062116 200062117 200062118 200062119 200062120 200062121 200062122 200062123 200062124 200062127 200062128 200062129 200062130 200062131 200062132 200061415 200061416 200071417 200071418 200071419 200071420 200071421 200071422 200071423 200071424 200071425 200071426 200071251 200071252 200071253 200071254 200071255 200075116 200002480 200007005 200007003 200002484 200014503 200014522 200014504" />
    </vehicle>
    <vehicle id="t10621.0" depart="0.00" fromTaz="216" toTaz="424">
        <route edges="200001272 200001271 200001267 200001274 200001288 200001294 200001341 200001340 200001355 200001360 200001376 200001383 200001417 200001485 200001490 200001500 200001513 200001516 200001519 200014204 200014211" />
    </vehicle>
    <vehicle id="t10631.0" depart="0.00" fromTaz="216" toTaz="435">
        <route edges="200014472 200001258 200001259 200001286 200001282 200001281 200013448 200001279 200002123 200002132 200013302 200002124 200083261 200080647 200080648 200060649 200060662 200060663 200060659 200062113 200062114 200062115 200062116 200062117 200062118 200062119 200062120 200062121 200062122 200062123 200062124 200062127 200062128 200062129 200062130 200062131 200062132 200063744 200063745 200063746 200061286 200064019 200061324 200063132 200000275" />
    </vehicle>
    <vehicle id="t10652.0" depart="0.00" fromTaz="216" toTaz="476">
        <route edges="200014472 200001258 200001259 200001286 200001282 200001281 200013448 200001279 200002123 200002132 200013302 200002124 200083261 200080647 200080648 200060649 200060662 200060663 200060659 200062113 200062114 200062115 200062116 200062117 200062118 200062119 200062120 200062121 200062122 200062123 200062124 200062127 200062128 200062129 200062130 200062131 200062132 200061415 200061416 200071417 200071418 200071419 200071420 200071421 200071422 200071423 200071424 200071425 200071426 200071249 200071250 200071322 200071353" />
    </vehicle>
    <vehicle id="t10677.0" depart="0.00" fromTaz="216" toTaz="513">
        <route edges="200014472 200001258 200001259 200001286 200001282 200001281 200013448 200001279 200002123 200002132 200013302 200002124 200083261 200080647 200080648 200060649 200060662 200060663 200060659 200062113 200062114 200062115 200062116 200062117 200062118 200062119 200062120 200062121 200062122 200062123 200062124 200062127 200062128 200062129 200062130 200062131 200062132 200061415 200061416 200071417 200071418 200071419 200071420 200071421 200071422 200071423 200071424 200071425 200071426 200071251 200071252 200071253 200071254 200071255 200075116 200002480 200007005 200007004 200002476 200071208 200071244 200071245 200002518 200002519 200002562 200002323 200800201 200002295" />
    </vehicle>
    <vehicle id="t10688.0" depart="0.00" fromTaz="216" toTaz="531">
        <route edges="200014472 200001258 200001259 200001286 200001282 200001281 200013448 200001279 200002123 200002132 200013302 200002124 200083261 200080647 200080648 200060649 200060662 200060663 200001678 200001680 200001681 200000018 200000017 200001683 200001710 200001711 200001712 200001713 200001684 200001719 200001686 200001687 200001720 200001721 200001688 200001718 200001722 200001588 200001791 200001589 200001724 200007028 200001530 200025155 200015066 200015070" />
    </vehicle>
    <vehicle id="t10689.0" depart="0.00" fromTaz="216" toTaz="532">
        <route edges="200014472 200001258 200001259 200001286 200001282 200001281 200013448 200001279 200002123 200002132 200013302 200002124 200083261 200080647 200080648 200060649 200060662 200060663 200001678 200001680 200001681 200000018 200000017 200001683 200001710 200001711 200001712 200001713 200001684 200001719 200001686 200001687 200001720 200001721 200001688 200001718 200001722 200001588 200001791 200001589 200001724 200007028 200001530 200025155" />
    </vehicle>
    <vehicle id="t10691.0" depart="0.00" fromTaz="216" toTaz="534">
        <route edges="200014472 200001258 200001259 200001286 200001282 200001281 200013448 200001279 200002123 200002132 200013302 200002124 200083261 200080647 200080648 200060649 200060662 200060663 200001678 200001680 200001681 200000018 200000017 200001683 200001710 200001711 200001712 200001713 200001684 200001719 200001686 200001687 200001720 200001721 200001730 200001727 200001731 200001733 200001734 200001586" />
    </vehicle>
    <vehicle id="t10781.0" depart="0.00" fromTaz="217" toTaz="234">
        <route edges="200001286 200001282 200001281 200013448 200001279 200002123 200002132 200013302 200002124 200083261 200080647 200080648 200060649 200060662 200060663 200060659 200062113 200062114 200062115 200062116 200062117 200062118 200062119 200062120 200062121 200062122 200062123 200062124 200062127 200062128 200062129 200062130 200062131 200062132 200061415 200061416 200071417 200071418 200071419 200071420 200071421 200071422 200071423 200071424 200071425 200071426 200071251 200071252 200071253 200071201 200073098 200070722 200090723 200090724 200090725 200090726" />
    </vehicle>
    <vehicle id="t10790.0" depart="0.00" fromTaz="217" toTaz="250">
        <route edges="200014460 200014412 200014416 200014418 200014419 200014444 200014250" />
    </vehicle>
    <vehicle id="t10795.0" depart="0.00" fromTaz="217" toTaz="260">
        <route edges="200001286 200001282 200001281 200013448 200001269 200002108 200002103 200002095 200002087 200002083 200002077 200002078 200012053 200001938 200001943 200001944 200001882 200001876 200001883 200002210" />
    </vehicle>
    <vehicle id="t10873.0" depart="0.00" fromTaz="217" toTaz="364">
        <route edges="200001286 200001282 200001281 200013448 200001279 200002123 200002132 200013302 200002124 200083261 200080647 200080648 200060649 200060662 200060663 200060659 200062113 200062114 200062115 200062116 200062117 200062118 200062119 200062120 200061296" />
    </vehicle>
    <vehicle id="t10887.0" depart="0.00" fromTaz="217" toTaz="378">
        <route edges="200001286 200001282 200001281 200013448 200001279 200002123 200002132 200013302 200002124 200083261 200080647 200080648 200060649 200060662 200060663 200060659 200062113 200062114 200062115 200062116 200062117 200062118 200062119 200062120 200062121 200062122 200062123 200062124 200062127 200062128 200062129 200062130 200062131 200062132 200061415 200061416 200071417 200071418 200071419 200071420 200071421 200071422 200071423 200071424 200071425 200071426 200071251 200071252 200071253 200071254 200071255 200075116 200002480 200007005 200007003 200002484 200014503 200014522 200014504" />
    </vehicle>
    <vehicle id="t10891.0" depart="0.00" fromTaz="217" toTaz="391">
        <route edges="200014460 200014412 200014416 200014418 200014419 200014444 200014250 200014253 200014256 200014257 200014275 200014261" />
    </vehicle>
    <vehicle id="t10940.0" depart="0.00" fromTaz="217" toTaz="465">
        <route edges="200001286 200001282 200001281 200013448 200001279 200002123 200002132 200013302 200002124 200083261 200080647 200080648 200060649 200060662 200060663 200060664 200001765 200001637 200001742 200001743 200001746 200001741 200001759" />
    </vehicle>
    <vehicle id="t10955.0" depart="0.00" fromTaz="217" toTaz="495">
        <route edges="200014460 200014412 200014416 200014418 200014419 200014444 200014250 200014253 200014256 200014257 200014275 200014261" />
    </vehicle>
    <vehicle id="t10957.0" depart="0.00" fromTaz="217" toTaz="498">
        <route edges="200001286 200001282 200001281 200013448 200001279 200002123 200002132 200013302 200002124 200083261 200080647 200080648 200060649 200060662 200060663 200001678 200001680 200001681 200000018 200000017 200001683 200001710 200001711 200001712 200001713 200001684 200001719 200001686 200001687 200001720 200001721 200001688 200001718" />
    </vehicle>
    <vehicle id="t1098.0" depart="0.00" fromTaz="167" toTaz="503">
        <route edges="200053018 200053019 200053020 200053021 200800205 200093169 200093170 200093171 200092428 200093070 200093071 200075134 200075137 200075139 200071258 200071259 200071260 200071261 200071262 200071263 200071264 200061265 200063744 200063745 200063746 200063747 200063748 200063749 200063751 200063752 200063753 200063754 200061266 200061267 200061268 200001783 200013429 200001620 200001738" />
    </vehicle>
    <vehicle id="t10982.0" depart="0.00" fromTaz="217" toTaz="532">
        <route edges="200001286 200001282 200001281 200013448 200001279 200002123 200002132 200013302 200002124 200083261 200080647 200080648 200060649 200060662 200060663 200001678 200001680 200001681 200000018 200000017 200001683 200001710 200001711 200001712 200001713 200001684 200001719 200001686 200001687 200001720 200001721 200001688 200001718 200001722 200001588 200001791 200001589 200001724 200007028 200001530 200025155" />
    </vehicle>
    <vehicle id="t10995.0" depart="0.00" fromTaz="217" toTaz="610">
        <route edges="200001286 200001282 200001281 200013448 200001279 200002123 200002132 200013302 200002124 200083261 200080647 200080648 200060649 200060662 200060663 200060664 200001765 200001637 200001742 200001743 200001746 200001741 200001759 200001613 200001649 200001652 200001616 200001623 200013429 200001620 200001738 200001739 200001740 200001735 200002748 200002749 200002745 200002747 200002746 200002645 200002646" />
    </vehicle>
    <vehicle id="t11011.0" depart="0.00" fromTaz="217" toTaz="672">