<?xml version='1.0' encoding='utf-8'?>
<routes xmlns:xsi="http://www.w3.org/2001/XMLSchema-instance" xsi:noNamespaceSchemaLocation="http://sumo.dlr.de/xsd/routes_file.xsd">
    <vType id="t10119.0_rain" accel="1.0" decel="4.0" maxSpeed="20" minGap="3.0" /><vehicle id="t10119.0" depart="0.00" fromTaz="214" toTaz="538" type="t10119.0_rain">
        <route edges="200001283 200001264 200001262 200001261 200001260 200014472 200001258 200001259 200001286 200001282 200001281 200013448 200001279 200002123 200002132 200013302 200002124 200083261 200080647 200080648 200060649 200060662 200060663 200060664 200001765 200001637 200001742 200001743 200001746 200001741 200001759 200001613 200001649 200001652 200001616 200001623 200013429 200001620 200001738" />
    </vehicle>
    <vType id="t10538.0_rain" accel="1.0" decel="4.0" maxSpeed="20" minGap="3.0" /><vehicle id="t10538.0" depart="0.00" fromTaz="216" toTaz="307" type="t10538.0_rain">
        <route edges="200014472 200001258 200001259 200001286 200001282 200001281 200013448 200001279 200002123 200002132 200013302 200002124 200083261 200080647 200080648 200060649 200060662 200060663 200060659 200062113 200062114 200062115 200062116 200062117 200062118 200062119 200062120 200062121 200062122 200062123 200062124 200062127 200062128 200062129 200062130 200062131 200062132 200061415 200061416 200071417 200071418 200071419 200071420 200071421 200071422 200071423 200071424 200071425 200071426 200071251 200071252 200071253 200071201 200073098 200070722 200800202 200002502 200002487 200002488 200002426 200002634" />
    </vehicle>
    <vType id="t10819.0_rain" accel="1.0" decel="4.0" maxSpeed="20" minGap="3.0" /><vehicle id="t10819.0" depart="0.00" fromTaz="217" toTaz="293" type="t10819.0_rain">
        <route edges="200001286 200001282 200001281 200013448 200001279 200002123 200002132 200013302 200002124 200083261 200080647 200080648 200060649 200060662 200060663 200060659 200062113 200062114 200062115 200062116 200061304 200060703 200060704 200061164 200084992" />
    </vehicle>
    <vType id="t10826.0_rain" accel="1.0" decel="4.0" maxSpeed="20" minGap="3.0" /><vehicle id="t10826.0" depart="0.00" fromTaz="217" toTaz="302" type="t10826.0_rain">
        <route edges="200001286 200001282 200001281 200013448 200001279 200002123 200002132 200013302 200002124 200083261 200080647 200080648 200060649 200060662 200060663 200060659 200062113 200062114 200062115 200062116 200062117 200062118 200062119 200062120 200062121 200062122 200062123 200062124 200062127 200062128 200062129 200062130 200062131 200062132 200061415 200061416 200071417 200071418 200071419 200071420 200071421 200071422 200071423 200071424 200071425 200071426 200075131 200075129 200075130 200093105" />
    </vehicle>
    <vType id="t10976.0_rain" accel="1.0" decel="4.0" maxSpeed="20" minGap="3.0" /><vehicle id="t10976.0" depart="0.00" fromTaz="217" toTaz="519" type="t10976.0_rain">
        <route edges="200001286 200001282 200001281 200013448 200001279 200002123 200002132 200013302 200002124 200083261 200080647 200080648 200060649 200060662 200060663 200060659 200062113 200062114 200062115 200062116 200062117 200062118 200062119 200062120 200062121 200062122 200062123 200062124 200062127 200062128 200062129 200062130 200062131 200062132 200061415 200061416 200071417 200071418 200071419 200071420 200071421 200071422 200071423 200071424 200071425 200071426 200071251 200071252 200071253 200071254 200071255 200075116 200002480 200007005 200007004 200002476 200071208 200071244 200071245 200002518 200002519 200002562 200002323 200800201 200002295 200002623 200002296 200002297 200002299 200035108 200034626 200034625 200034624" />
    </vehicle>
    <vType id="t10978.0_rain" accel="1.0" decel="4.0" maxSpeed="20" minGap="3.0" /><vehicle id="t10978.0" depart="0.00" fromTaz="217" toTaz="528" type="t10978.0_rain">
        <route edges="200001286 200001282 200001281 200013448 200001279 200002123 200002132 200013302 200002124 200083261 200080647 200080648 200060649 200060662 200060663 200001678 200001680 200001681 200000018 200000017 200001683 200001710 200001711 200001712 200001713 200001684 200001719 200001686 200001687 200001720 200001721 200001688 200001718 200001722 200001588 200001791 200001589 200001724 200007028 200001530 200025155 200015066 200015070 200020731 200020983" />
    </vehicle>
    <vType id="t11007.0_rain" accel="1.0" decel="4.0" maxSpeed="20" minGap="3.0" /><vehicle id="t11007.0" depart="0.00" fromTaz="217" toTaz="649" type="t11007.0_rain">
        <route edges="200001286 200001282 200001281 200013448 200001279 200002123 200002132 200013302 200002124 200083261 200080647 200080648 200060649 200060662 200060663 200060664 200001765 200001637 200001742 200001743 200001746 200001741 200001759 200001613 200001649 200001652 200001616 200001623 200013429 200001620 200001738 200001739 200001740 200001735 200002748 200002749 200002745 200002747 200002746 200002645 200002646 200002671 200002647 200002648 200002649 200002650 200002708" />
    </vehicle>
    <vType id="t11068.0_rain" accel="1.0" decel="4.0" maxSpeed="20" minGap="3.0" /><vehicle id="t11068.0" depart="0.00" fromTaz="218" toTaz="230" type="t11068.0_rain">
        <route edges="200001286 200001282 200001281 200013448 200001269 200002108 200002103 200002095 200002087 200002083 200002077 200002078 200012053 200001941 200001942 200001930 200001934 200002194 200001120 200001123 200001134 200001138 200001139 200001140 200001141 200000782 200000631 200000630 200000629 200000627 200000628 200000006 200000626 200000625 200000623 200000622" />
    </vehicle>
    <vType id="t11182.0_rain" accel="1.0" decel="4.0" maxSpeed="20" minGap="3.0" /><vehicle id="t11182.0" depart="0.00" fromTaz="218" toTaz="391" type="t11182.0_rain">
        <route edges="200001297 200001277 200001276 200001272 200001271 200001267 200001274 200001288 200001294 200001341 200001340 200001338 200001353 200001354 200001345 200001333 200011005 200001283 200001264 200001262 200001261 200001260 200014470 200014466 200014451 200014441 200014419 200014444 200014250 200014253 200014256 200014257 200014275 200014261" />
    </vehicle>
    <vType id="t11268.0_rain" accel="1.0" decel="4.0" maxSpeed="20" minGap="3.0" /><vehicle id="t11268.0" depart="0.00" fromTaz="218" toTaz="527" type="t11268.0_rain">
        <route edges="200001286 200001282 200001281 200013448 200001279 200002123 200002132 200013302 200002124 200083261 200080647 200080648 200060649 200060662 200060663 200001678 200001680 200001681 200000018 200000017 200001683 200001710 200001711 200001712 200001713 200001684 200001719 200001686 200001687 200001720 200001721 200001688 200001718 200001722 200001588 200001791 200001589 200001724 200007028 200001530 200025155 200015066 200015070 200020731 200020983 200014224" />
    </vehicle>
    <vType id="t11413.0_rain" accel="1.0" decel="4.0" maxSpeed="20" minGap="3.0" /><vehicle id="t11413.0" depart="0.00" fromTaz="219" toTaz="305" type="t11413.0_rain">
        <route edges="200001282 200001281 200013448 200001279 200002123 200002132 200013302 200002124 200083261 200080647 200080648 200060649 200060662 200060663 200060659 200062113 200062114 200062115 200062116 200062117 200062118 200062119 200062120 200062121 200062122 200062123 200062124 200062127 200062128 200062129 200062130 200062131 200062132 200061415 200061416 200071417 200071418 200071419 200071420 200071421 200071422 200071423 200071424 200071425 200071426 200071251 200071252 200071253 200071201 200073098 200070722 200800202 200002502" />
    </vehicle>
    <vType id="t11582.0_rain" accel="1.0" decel="4.0" maxSpeed="20" minGap="3.0" /><vehicle id="t11582.0" depart="0.00" fromTaz="219" toTaz="613" type="t11582.0_rain">
        <route edges="200001282 200001281 200013448 200001279 200002123 200002132 200013302 200002124 200083261 200080647 200080648 200060649 200060662 200060663 200060664 200001765 200001637 200001742 200001743 200001746 200001741 200001759 200001613 200001649 200001652 200001616 200001623 200013429 200001620 200001738 200001739 200001740 200001735 200002748 200002749 200002745 200002747 200002746 200002645 200002646 200002671 200002647 200002648 200002649 200002650" />
    </vehicle>
    <vType id="t1165.0_rain" accel="1.0" decel="4.0" maxSpeed="20" minGap="3.0" /><vehicle id="t1165.0" depart="0.00" fromTaz="168" toTaz="180" type="t1165.0_rain">
        <route edges="200053018 200053019 200053020 200053021 200014405 200014406 200001082 200001080 200001074 200001069 200001066 200001063 200001058 200001221 200000621 200000638 200000636 200000640 200000639 200000641 200000644 200000643 200000646 200000647 200001153 200001154 200001156 200001157 200001150 200001148 200001146 200001142 200001136 200001132 200001874 200002196 200001873 200001878 200001879 200002066 200002067 200007074 200002069 200002074 200002075 200002076 200002113 200002116 200002134 200013444 200013446 200013447 200001297 200001277 200001276 200001272 200001271 200001267 200001274 200001288 200001294 200001341 200001340 200001338 200001353 200001354 200001345 200001333 200011005 200001283 200001264 200001262 200001261 200001260 200014470 200014467" />
    </vehicle>
    <vType id="t11854.0_rain" accel="1.0" decel="4.0" maxSpeed="20" minGap="3.0" /><vehicle id="t11854.0" depart="0.00" fromTaz="220" toTaz="528" type="t11854.0_rain">
        <route edges="200001279 200002123 200002132 200013302 200002124 200083261 200080647 200080648 200060649 200060662 200060663 200001678 200001680 200001681 200000018 200000017 200001683 200001710 200001711 200001712 200001713 200001684 200001719 200001686 200001687 200001720 200001721 200001688 200001718 200001722 200001588 200001791 200001589 200001724 200007028 200001530 200025155 200015066 200015070 200020731 200020983" />
    </vehicle>
    <vType id="t1209.0_rain" accel="1.0" decel="4.0" maxSpeed="20" minGap="3.0" /><vehicle id="t1209.0" depart="0.00" fromTaz="168" toTaz="233" type="t1209.0_rain">
        <route edges="200053018 200053019 200053020 200053021 200014405" />
    </vehicle>
    <vType id="t12155.0_rain" accel="1.0" decel="4.0" maxSpeed="20" minGap="3.0" /><vehicle id="t12155.0" depart="0.00" fromTaz="221" toTaz="565" type="t12155.0_rain">
        <route edges="200080645 200080646 200080647 200080648 200060649 200060662 200060663 200001678 200001680 200001681 200000018 200000017 200001683 200001710 200001711 200001712 200001713 200001684 200001719 200001686 200001687 200001720 200001721 200001688 200001718 200001722 200001588 200001791 200001589 200001724 200007028 200001530 200025155 200015066 200015070 200020987 200020978" />
    </vehicle>
    <vType id="t12479.0_rain" accel="1.0" decel="4.0" maxSpeed="20" minGap="3.0" /><vehicle id="t12479.0" depart="0.00" fromTaz="223" toTaz="177" type="t12479.0_rain">
        <route edges="200002075 200002076 200002113 200002116 200002134 200013444 200013446 200013447 200001297 200001277 200001276 200001272 200001271 200001267 200001274 200001288 200001294 200001341 200001340 200001338 200001334 200001327 200001324 200001302 200001284 200001257 200001253 200001250 200001243" />
    </vehicle>
    <vType id="t12506.0_rain" accel="1.0" decel="4.0" maxSpeed="20" minGap="3.0" /><vehicle id="t12506.0" depart="0.00" fromTaz="223" toTaz="213" type="t12506.0_rain">
        <route edges="200002075 200002076 200002113 200002116 200002134 200013444 200013446 200013447 200001297 200001277 200001276 200001272 200001271 200001267 200001274 200001288 200001294 200001298 200001336" />
    </vehicle>
    <vType id="t12519.0_rain" accel="1.0" decel="4.0" maxSpeed="20" minGap="3.0" /><vehicle id="t12519.0" depart="0.00" fromTaz="223" toTaz="227" type="t12519.0_rain">
        <route edges="200002078 200012053 200001941 200001942 200001930 200001934 200002194 200001120 200001123 200001134 200001138 200001139" />
    </vehicle>
    <vType id="t12534.0_rain" accel="1.0" decel="4.0" maxSpeed="20" minGap="3.0" /><vehicle id="t12534.0" depart="0.00" fromTaz="223" toTaz="248" type="t12534.0_rain">
        <route edges="200002075 200002076 200002113 200002116 200002134 200013444 200013446 200013447 200001297 200001277 200001276 200001272 200001271 200001267 200001274 200001288 200001294 200001341 200001340 200001355" />
    </vehicle>
    <vType id="t12571.0_rain" accel="1.0" decel="4.0" maxSpeed="20" minGap="3.0" /><vehicle id="t12571.0" depart="0.00" fromTaz="223" toTaz="302" type="t12571.0_rain">
        <route edges="200002078 200012053 200001941 200001942 200001930 200001934 200002194 200001120 200001123 200001134 200001138 200001139 200001140 200001141 200000782 200000631 200000630 200000629 200000657 200000658 200082253 200084344 200094343 200094342 200092140 200092658 200092659 200092660 200091183 200091221" />
    </vehicle>
    <vType id="t12590.0_rain" accel="1.0" decel="4.0" maxSpeed="20" minGap="3.0" /><vehicle id="t12590.0" depart="0.00" fromTaz="223" toTaz="327" type="t12590.0_rain">
        <route edges="200002075 200002076 200002113 200002105 200002117 200002118 200002119 200002125 200083261 200080647 200080648 200060649 200060662 200060663 200060659 200062113 200062114 200062115" />
    </vehicle>
    <vType id="t12657.0_rain" accel="1.0" decel="4.0" maxSpeed="20" minGap="3.0" /><vehicle id="t12657.0" depart="0.00" fromTaz="223" toTaz="414" type="t12657.0_rain">
        <route edges="200002078 200012053 200001938 200001943 200001944 200001882 200001925 200084974 200084978 200084965 200084964 200082263 200082264 200082265 200081364 200061365 200061366 200061542 200061415 200061416 200071417 200071418 200071419 200071420 200071421 200071422 200071423 200071424 200071425 200071426 200071251 200071252 200071253 200071254 200071255 200075116 200002480 200007005 200007004 200002476 200071208 200071244 200071245 200002518 200002617 200002618 200014500" />
    </vehicle>
    <vType id="t12680.0_rain" accel="1.0" decel="4.0" maxSpeed="20" minGap="3.0" /><vehicle id="t12680.0" depart="0.00" fromTaz="223" toTaz="459" type="t12680.0_rain">
        <route edges="200002075 200002076 200002113 200002105 200002117 200002118 200002119 200002125 200083261 200080647 200080648 200060649 200060662 200060663 200001678 200001680 200001681 200000018 200000017 200001683 200001710 200001711 200001712 200001713 200001684 200001719 200001686 200001687 200001720 200001721 200001688 200001718 200001722 200001588 200001791 200001589 200001724 200007028 200001530 200025155 200015066 200015070 200020731 200020983 200014222 200014216" />
    </vehicle>
    <vType id="t12716.0_rain" accel="1.0" decel="4.0" maxSpeed="20" minGap="3.0" /><vehicle id="t12716.0" depart="0.00" fromTaz="223" toTaz="514" type="t12716.0_rain">
        <route edges="200002078 200012053 200001938 200001943 200001944 200001882 200001925 200084974 200084978 200084965 200084964 200082263 200082264 200082265 200081364 200061365 200061366 200061542 200061415 200061416 200071417 200071418 200071419 200071420 200071421 200071422 200071423 200071424 200071425 200071426 200071251 200071252 200071253 200071254 200071255 200075116 200002480 200007005 200007004 200002476 200071208 200071244 200071245 200002518 200002519 200002562 200002323 200800201 200002295 200002623" />
    </vehicle>
    <vType id="t12730.0_rain" accel="1.0" decel="4.0" maxSpeed="20" minGap="3.0" /><vehicle id="t12730.0" depart="0.00" fromTaz="223" toTaz="538" type="t12730.0_rain">
        <route edges="200002075 200002076 200002113 200002105 200002117 200002118 200002119 200002125 200083261 200080647 200080648 200060649 200060662 200060663 200060664 200001765 200001637 200001742 200001743 200001746 200001741 200001759 200001613 200001649 200001652 200001616 200001623 200013429 200001620 200001738" />
    </vehicle>
    <vType id="t1278.0_rain" accel="1.0" decel="4.0" maxSpeed="20" minGap="3.0" /><vehicle id="t1278.0" depart="0.00" fromTaz="168" toTaz="332" type="t1278.0_rain">
        <route edges="200053018 200053019 200053020 200053021 200800205 200093169 200093170 200093171 200092428 200093070 200093071 200075134 200075137 200075139 200071258 200071259 200071260 200071261 200071262 200071263 200071264 200061265 200062092 200062094 200082095 200082261 200082262" />
    </vehicle>
    <vType id="t12794.0_rain" accel="1.0" decel="4.0" maxSpeed="20" minGap="3.0" /><vehicle id="t12794.0" depart="0.00" fromTaz="224" toTaz="202" type="t12794.0_rain">
        <route edges="200001930 200001934 200002194 200001120 200001123 200001134 200001138 200001139 200001140 200001141 200000782 200000631 200000630 200000629 200000627 200000628 200000006 200000626 200000625 200000623 200000622 200000619 200000932 200000930 200000928 200000997 200000926 200001130 200002616 200002600 200000012 200002601 200002603 200800206 200054813 200054812 200054811" />
    </vehicle>
    <vType id="t12884.0_rain" accel="1.0" decel="4.0" maxSpeed="20" minGap="3.0" /><vehicle id="t12884.0" depart="0.00" fromTaz="224" toTaz="333" type="t12884.0_rain">
        <route edges="200001925 200084974 200084978 200084965 200084964 200082263 200082264" />
    </vehicle>
    <vType id="t12931.0_rain" accel="1.0" decel="4.0" maxSpeed="20" minGap="3.0" /><vehicle id="t12931.0" depart="0.00" fromTaz="224" toTaz="398" type="t12931.0_rain">
        <route edges="200082577 200084712 200085011 200085013 200085015 200080648 200060649 200060662 200062661 200064849 200064848" />
    </vehicle>
    <vType id="t13050.0_rain" accel="1.0" decel="4.0" maxSpeed="20" minGap="3.0" /><vehicle id="t13050.0" depart="0.00" fromTaz="224" toTaz="686" type="t13050.0_rain">
        <route edges="200082577 200084712 200085011 200085013 200085015 200080648 200060649 200060662 200060663 200060664 200001765 200001637 200001742 200001743 200001746 200001741 200001759 200001613 200001649 200001652 200001616 200001623 200013429 200001620 200001738 200001739 200001740 200001735 200002748 200002749 200002745 200002747 200002746 200002645 200002646 200002671 200002647 200002648 200002649 200002650 200002708 200002682 200002683 200002694 200002684 200013428 200013424 200002719" />
    </vehicle>
    <vType id="t13112.0_rain" accel="1.0" decel="4.0" maxSpeed="20" minGap="3.0" /><vehicle id="t13112.0" depart="0.00" fromTaz="225" toTaz="247" type="t13112.0_rain">
        <route edges="200001879 200002066 200002067 200007074 200002069 200002074 200002075 200002076 200002113 200002116 200002134 200013444 200013446 200013447 200001297 200001277 200001276 200001272 200001271 200001267 200001274 200001288 200001294 200001341 200001340 200001355" />
    </vehicle>
    <vType id="t13129.0_rain" accel="1.0" decel="4.0" maxSpeed="20" minGap="3.0" /><vehicle id="t13129.0" depart="0.00" fromTaz="225" toTaz="281" type="t13129.0_rain">
        <route edges="200001879 200002066 200002067 200007074 200002069 200002074 200002075 200002076 200002113 200002116 200002134 200013444 200013446 200013447 200001297 200001277 200001276 200001272 200001271 200001267 200001274 200001288 200001294 200001341 200001340 200001355 200001360" />
    </vehicle>
    <vType id="t13325.0_rain" accel="1.0" decel="4.0" maxSpeed="20" minGap="3.0" /><vehicle id="t13325.0" depart="0.00" fromTaz="225" toTaz="650" type="t13325.0_rain">
        <route edges="200001867 200001120 200001123 200001134 200001138 200001139 200001140 200001141 200000782 200000631 200000630 200000629 200000657 200000658 200082253 200082254 200081359 200081360 200081361 200081362 200081363 200081364 200061365 200061366 200061367 200063744 200063745 200063746 200063747 200063748 200063749 200063751 200063752 200063753 200063754 200061266 200061267 200061268 200001783 200013429 200001620 200001738 200001739 200001740 200001735 200002748 200002749 200002745 200002747 200002746 200002645 200002646 200002671 200002647 200002648 200002649 200002650 200002708 200002682 200002683" />
    </vehicle>
    <vType id="t13464.0_rain" accel="1.0" decel="4.0" maxSpeed="20" minGap="3.0" /><vehicle id="t13464.0" depart="0.00" fromTaz="226" toTaz="340" type="t13464.0_rain">
        <route edges="200001139 200001140 200001141 200000782 200000631 200000630 200000629 200000657 200000658 200082253 200082254 200081359 200081360 200081361 200081362 200081363 200081364 200061365 200061366 200061542 200061415 200061416 200071417 200071418 200071419 200071420 200071421 200071422 200071423 200071424 200071425 200071426 200071251 200071252 200071253 200071254 200071255 200075116 200002473" />
    </vehicle>
    <vType id="t13512.0_rain" accel="1.0" decel="4.0" maxSpeed="20" minGap="3.0" /><vehicle id="t13512.0" depart="0.00" fromTaz="226" toTaz="408" type="t13512.0_rain">
        <route edges="200001139 200001140 200001141 200000782 200000631 200000630 200000629 200000657 200000658 200082253 200082254 200081359 200081360 200081361 200081362 200081363 200081364 200061365 200061366 200061542 200061415 200061416 200071417 200071418 200071419 200071420 200071421 200071422 200071423 200071424 200071425 200071426 200071249 200074314 200071181" />
    </vehicle>
    <vType id="t13545.0_rain" accel="1.0" decel="4.0" maxSpeed="20" minGap="3.0" /><vehicle id="t13545.0" depart="0.00" fromTaz="226" toTaz="464" type="t13545.0_rain">
        <route edges="200001139 200001140 200001141 200000782 200000631 200000630 200000629 200000657 200000658 200082253 200082254 200081359 200081360 200081361 200081362 200081363 200081364 200061365 200061366 200061367 200063744 200063745 200063746 200063747 200063748 200063749 200063751 200063752 200063753 200063754 200063757 200061428 200061429 200061430 200060662 200060663 200001678 200001680 200001681 200000018 200000017 200001683 200001710 200001711 200001712 200001713 200001684 200001719 200001686" />
    </vehicle>
    <vType id="t13676.0_rain" accel="1.0" decel="4.0" maxSpeed="20" minGap="3.0" /><vehicle id="t13676.0" depart="0.00" fromTaz="227" toTaz="234" type="t13676.0_rain">
        <route edges="200000631 200000630 200000629 200000627 200000628 200000006 200000626 200000625 200000623 200000622 200000619 200000932 200000930 200000928 200000997 200000926 200001130 200002616 200002600 200000012 200002601" />
    </vehicle>
    <vType id="t13682.0_rain" accel="1.0" decel="4.0" maxSpeed="20" minGap="3.0" /><vehicle id="t13682.0" depart="0.00" fromTaz="227" toTaz="246" type="t13682.0_rain">
        <route edges="200001150 200001148 200001146 200001142 200001136 200001132 200001874 200002196 200001873 200001878 200001879 200002066 200002067 200007074 200002069 200002074 200002075 200002076 200002113 200002116 200002134 200013444 200013446 200013447 200001297 200001277 200001276 200001272 200001271 200001267 200001274 200001288 200001294 200001341 200001340 200001355 200001360" />
    </vehicle>
    <vType id="t13690.0_rain" accel="1.0" decel="4.0" maxSpeed="20" minGap="3.0" /><vehicle id="t13690.0" depart="0.00" fromTaz="227" toTaz="260" type="t13690.0_rain">
        <route edges="200001150 200001148 200001146 200001142 200001136 200001132 200001874 200002196 200001873 200001871 200001875 200002193 200001877 200001883 200002210" />
    </vehicle>
    <vType id="t13807.0_rain" accel="1.0" decel="4.0" maxSpeed="20" minGap="3.0" /><vehicle id="t13807.0" depart="0.00" fromTaz="227" toTaz="428" type="t13807.0_rain">
        <route edges="200000631 200000630 200000629 200000657 200000658 200082253 200082254 200081359 200081360 200081361 200081362 200081363 200081364 200061365 200061366 200061367 200063744 200063745 200063746 200063747 200063748 200063749 200063751 200063752 200063753 200063754 200063757 200061428 200061429 200061430 200060662 200060663 200001678 200001680 200001681 200000018 200000017 200001683 200001710 200001711 200001712 200001713 200001556 200015022" />
    </vehicle>
    <vType id="t14097.0_rain" accel="1.0" decel="4.0" maxSpeed="20" minGap="3.0" /><vehicle id="t14097.0" depart="0.00" fromTaz="228" toTaz="425" type="t14097.0_rain">
        <route edges="200000647 200001153 200001154 200001156 200001157 200001150 200001148 200001146 200001142 200001136 200001132 200001874 200002196 200001873 200001878 200001879 200002066 200002067 200007074 200002069 200002074 200002075 200002076 200002113 200002116 200002134 200013444 200013446 200013447 200001297 200001277 200001276 200001272 200001271 200001267 200001274 200001288 200001294 200001341 200001340 200001338 200001353 200001354 200001345 200001333 200011005 200001283 200001264 200001262 200001261 200001260 200014470 200014466 200014451 200014441 200014419 200014444 200014250 200014253 200014256 200014257 200014275 200014261" />
    </vehicle>
    <vType id="t14107.0_rain" accel="1.0" decel="4.0" maxSpeed="20" minGap="3.0" /><vehicle id="t14107.0" depart="0.00" fromTaz="228" toTaz="440" type="t14107.0_rain">
        <route edges="200000659 200082253 200082254 200081359 200081360 200081361 200081362 200081363 200081364 200061365 200061366 200061367 200061368 200061369 200061370 200064842 200064964 200064965 200064966 200074841" />
    </vehicle>
    <vType id="t14180.0_rain" accel="1.0" decel="4.0" maxSpeed="20" minGap="3.0" /><vehicle id="t14180.0" depart="0.00" fromTaz="228" toTaz="613" type="t14180.0_rain">
        <route edges="200000659 200082253 200082254 200081359 200081360 200081361 200081362 200081363 200081364 200061365 200061366 200061367 200063744 200063745 200063746 200063747 200063748 200063749 200063751 200063752 200063753 200063754 200061266 200061267 200061268 200001783 200013429 200001620 200001738 200001739 200001740 200001735 200002748 200002749 200002745 200002747 200002746 200002645 200002646 200002671 200002647 200002648 200002649 200002650" />
    </vehicle>
    <vType id="t14187.0_rain" accel="1.0" decel="4.0" maxSpeed="20" minGap="3.0" /><vehicle id="t14187.0" depart="0.00" fromTaz="228" toTaz="647" type="t14187.0_rain">
        <route edges="200000659 200082253 200082254 200081359 200081360 200081361 200081362 200081363 200081364 200061365 200061366 200061367 200063744 200063745 200063746 200063747 200063748 200063749 200063751 200063752 200063753 200063754 200061266 200061267 200061268 200001783 200013429 200001620 200001738 200001739 200001740 200001735 200002748 200002749 200002745 200002747 200002746 200002645 200002646 200002671 200002647 200002648 200002649 200013426" />
    </vehicle>
    <vType id="t14523.0_rain" accel="1.0" decel="4.0" maxSpeed="20" minGap="3.0" /><vehicle id="t14523.0" depart="0.00" fromTaz="230" toTaz="217" type="t14523.0_rain">
        <route edges="200000635 200000638 200000636 200000640 200000639 200000641 200000644 200000643 200000646 200000647 200001153 200001154 200001156 200001157 200001150 200001148 200001146 200001142 200001136 200001132 200001874 200002196 200001873 200001878 200001879 200002066 200002067 200007074 200002069 200002074 200002075 200002076 200002113 200002116 200002134 200013444 200013446 200013447 200001297" />
    </vehicle>
    <vType id="t14548.0_rain" accel="1.0" decel="4.0" maxSpeed="20" minGap="3.0" /><vehicle id="t14548.0" depart="0.00" fromTaz="230" toTaz="250" type="t14548.0_rain">
        <route edges="200000635 200000638 200000636 200000640 200000639 200000641 200000644 200000643 200000646 200000647 200001153 200001154 200001156 200001157 200001150 200001148 200001146 200001142 200001136 200001132 200001874 200002196 200001873 200001878 200001879 200002066 200002067 200007074 200002069 200002074 200002075 200002076 200002113 200002116 200002134 200013444 200013446 200013447 200001297 200001277 200001276 200001272 200001271 200001267 200001274 200001288 200001294 200001341 200001340 200001338 200001353 200001354 200001345 200001333 200011005 200001283 200001264 200001262 200001261 200001260 200014470 200014466 200014451 200014441 200014419 200014444 200014250" />
    </vehicle>
    <vType id="t14577.0_rain" accel="1.0" decel="4.0" maxSpeed="20" minGap="3.0" /><vehicle id="t14577.0" depart="0.00" fromTaz="230" toTaz="293" type="t14577.0_rain">
        <route edges="200000635 200000638 200000636 200000640 200000677 200081389 200082254 200081359 200081360 200081361 200081362 200081363 200081364 200061365 200061366 200061367 200063744 200063745 200063746 200063747 200063748 200063749 200063751 200063752 200063753 200063754 200061164 200084992" />
    </vehicle>
    <vType id="t14627.0_rain" accel="1.0" decel="4.0" maxSpeed="20" minGap="3.0" /><vehicle id="t14627.0" depart="0.00" fromTaz="230" toTaz="360" type="t14627.0_rain">
        <route edges="200000635 200000638 200000636 200000640 200000677 200081389 200082254 200081359 200081360 200081361 200081362 200081363 200081364 200061365 200061366 200061367 200063744 200063745 200063746 200063747 200063748 200063749 200063751 200063752 200063753 200063754 200063757 200061428 200061429 200061430 200060662 200060663" />
    </vehicle>
    <vType id="t14628.0_rain" accel="1.0" decel="4.0" maxSpeed="20" minGap="3.0" /><vehicle id="t14628.0" depart="0.00" fromTaz="230" toTaz="361" type="t14628.0_rain">
        <route edges="200000635 200000638 200000636 200000640 200000677 200081389 200082254 200081359 200081360 200081361 200081362 200081363 200081364 200061365 200061366 200061367 200063744 200063745 200063746 200063747 200063748 200063749 200063751 200063752 200063753 200063754 200063757 200061428 200061429 200061430 200060662" />
    </vehicle>
    <vType id="t14692.0_rain" accel="1.0" decel="4.0" maxSpeed="20" minGap="3.0" /><vehicle id="t14692.0" depart="0.00" fromTaz="230" toTaz="458" type="t14692.0_rain">
        <route edges="200000635 200000638 200000636 200000640 200000677 200081389 200082254 200081359 200081360 200081361 200081362 200081363 200081364 200061365 200061366 200061367 200063744 200063745 200063746 200063747 200063748 200063749 200063751 200063752 200063753 200063754 200063757 200061428 200061429 200061430 200001465 200001463 200001442 200001441 200001439 200001436 200001424 200001397 200001395 200001392 200001387 200001431 200001443 200001447 200001479 200001489 200001495 200001527 200001499 200001507 200001509 200014204 200014232 200014230" />