<configuration xmlns:xsi="http://www.w3.org/2001/XMLSchema-instance" xsi:noNamespaceSchemaLocation="http://sumo.dlr.de/xsd/sumoConfiguration.xsd">

    <input>
        <net-file value="E:\\Traffic_Simulation\\Adverse_weather_traffic\\net\\core_withshape_with_light_changing.net.xml" />
        <route-files value="E:\\Traffic_Simulation\\Adverse_weather_traffic\\snowplow_rou\\routes_od_4_rain.rou.xml" />
       <additional-files value="e1.add.xml" />
   <time>
        
        <begin value="0" />
        
        <end value="3600" /> 
    </time>


    </input>

    

</configuration>