<?xml version='1.0' encoding='utf-8'?>
<configuration xmlns:xsi="http://www.w3.org/2001/XMLSchema-instance" xsi:noNamespaceSchemaLocation="http://sumo.dlr.de/xsd/sumoConfiguration.xsd">

    <input>
        <net-file value="D:\\Adverse_weather_traffic\\net\\core_withshape_with_light_changing.net.xml" />
        <route-files value="scale_rou/routes_od_90_rain.rou.xml" />
       <additional-files value="e1.add.xml" />
   <time>
        
        <begin value="0" />
        
        <end value="3600" /> 
    </time>


    </input>

    

</configuration>