<additional xmlns:xsi="http://www.w3.org/2001/XMLSchema-instance" xsi:noNamespaceSchemaLocation="http://sumo.dlr.de/xsd/additional_file.xsd">

	<edgeData id="all" begin="0" end="3600" freq="20" file="output_normal.xml" />
    
	<busStop id="busstop1" lane="-E10_0" startPos="10" endPos="20" lines="100"/>
    
	<busStop id="busstop2" lane="-E9_0" startPos="5" endPos="10" lines="100"/>
	
    <vType id="BUS" accel="2.6" decel="4.5" sigma="0" length="12" minGap="3" maxSpeed="70" color="1,1,0" guiShape="bus" personCapacity="50"/>

    <vehicle id="bus_0" type="BUS" depart="5" line="100" >
        
		<route edges="-E0 -E10 -E9 -E8 -E7 -E6 -E5 -E4 -E15"/>
        
		<stop busStop="busstop1" duration="20"/>
        <stop busStop="busstop2" duration="20"/>
        
    </vehicle>
	
</additional>